####################################################################### 
# 
# This file contains crystal structure data downloaded from the 
# Cambridge Structural Database (CSD) hosted by the Cambridge 
# Crystallographic Data Centre (CCDC).
# 
# Full information about CCDC data access policies and citation 
# guidelines are available at http://www.ccdc.cam.ac.uk/access/V1 
# 
# Audit and citation data items may have been added by the CCDC. 
# Please retain this information to preserve the provenance of 
# this file and to allow appropriate attribution of the data. 
# 
#######################################################################

data_mo_detasbcl_new_0m
_audit_block_doi                 10.5517/ccdc.csd.cc2krljg
_database_code_depnum_ccdc_archive 'CCDC 2376166'
loop_
_citation_id
_citation_doi
_citation_year
1 10.1039/D4TC03543G 2025
loop_
_audit_author_name
_audit_author_address
'Deep Kumar Das'
;IISER Tirupati
India
;
_audit_update_record             
;
2024-08-07 deposited with the CCDC.	2025-05-22 downloaded from the CCDC.
;
_audit_creation_date             2023-12-15
_audit_creation_method           
;
Olex2 1.5
(compiled 2022.04.07 svn.rca3783a0 for OlexSys, GUI svn.r6498)
;
_shelx_SHELXL_version_number     2019/1
_chemical_name_common            ?
_chemical_name_systematic        ?
_chemical_formula_moiety         'Cl5 Sb, Cl, C4 H16 N3'
_chemical_formula_sum            'C4 H16 Cl6 N3 Sb'
_chemical_formula_weight         440.65
_chemical_melting_point          ?
loop_
_atom_type_symbol
_atom_type_description
_atom_type_scat_dispersion_real
_atom_type_scat_dispersion_imag
_atom_type_scat_source

Sb Sb -0.5866 1.5461 'International Tables Vol C Tables 4.2.6.8 and 6.1.1.4'

_shelx_space_group_comment       
;
The symmetry employed for this shelxl refinement is uniquely defined
by the following loop, which should always be used as a source of
symmetry information in preference to the above space-group names.
They are only intended as comments.
;
_space_group_crystal_system      triclinic
_space_group_IT_number           2
_space_group_name_H-M_alt        'P -1'
_space_group_name_Hall           '-P 1'
loop_
_space_group_symop_operation_xyz
'x, y, z'
'-x, -y, -z'

_cell_length_a                   8.1100(2)
_cell_length_b                   9.9485(2)
_cell_length_c                   9.9573(3)
_cell_angle_alpha                79.8530(10)
_cell_angle_beta                 67.7580(10)
_cell_angle_gamma                74.0380(10)
_cell_volume                     712.58(3)
_cell_formula_units_Z            2
_cell_measurement_reflns_used    8597
_cell_measurement_temperature    150.00
_cell_measurement_theta_max      26.378
_cell_measurement_theta_min      2.217
_shelx_estimated_absorpt_T_max   0.582
_shelx_estimated_absorpt_T_min   0.582
_exptl_absorpt_coefficient_mu    3.032
_exptl_absorpt_correction_T_max  0.7454
_exptl_absorpt_correction_T_min  0.6696
_exptl_absorpt_correction_type   multi-scan
_exptl_absorpt_process_details   
;
SADABS-2016/2 (Bruker,2016/2) was used for absorption correction.
wR2(int) was 0.0543 before and 0.0441 after correction.
The Ratio of minimum to maximum transmission is 0.8983.
The \l/2 correction factor is Not present.
;
_exptl_absorpt_special_details   ?
_exptl_crystal_colour            'clear colourless'
_exptl_crystal_colour_lustre     clear
_exptl_crystal_colour_primary    colourless
_exptl_crystal_density_diffrn    2.054
_exptl_crystal_density_meas      ?
_exptl_crystal_density_method    ?
_exptl_crystal_description       block
_exptl_crystal_F_000             428
_exptl_crystal_size_max          0.2
_exptl_crystal_size_mid          0.2
_exptl_crystal_size_min          0.2
_exptl_transmission_factor_max   ?
_exptl_transmission_factor_min   ?
_diffrn_reflns_av_R_equivalents  0.0366
_diffrn_reflns_av_unetI/netI     0.0236
_diffrn_reflns_Laue_measured_fraction_full 0.996
_diffrn_reflns_Laue_measured_fraction_max 0.996
_diffrn_reflns_limit_h_max       10
_diffrn_reflns_limit_h_min       -10
_diffrn_reflns_limit_k_max       12
_diffrn_reflns_limit_k_min       -12
_diffrn_reflns_limit_l_max       12
_diffrn_reflns_limit_l_min       -12
_diffrn_reflns_number            11677
_diffrn_reflns_point_group_measured_fraction_full 0.996
_diffrn_reflns_point_group_measured_fraction_max 0.996
_diffrn_reflns_theta_full        25.242
_diffrn_reflns_theta_max         26.385
_diffrn_reflns_theta_min         2.136
_diffrn_ambient_temperature      150.00
_diffrn_detector_area_resol_mean ?
_diffrn_measured_fraction_theta_full 0.996
_diffrn_measured_fraction_theta_max 0.996
_diffrn_measurement_device_type  'Bruker APEX-II CCD'
_diffrn_measurement_method       ?
_diffrn_radiation_type           MoK\a
_diffrn_radiation_wavelength     0.71073
_diffrn_source                   ?
_reflns_Friedel_coverage         0.000
_reflns_Friedel_fraction_full    .
_reflns_Friedel_fraction_max     .
_reflns_number_gt                2782
_reflns_number_total             2909
_reflns_special_details          
;
 Reflections were merged by SHELXL according to the crystal
 class for the calculation of statistics and refinement.
 
 _reflns_Friedel_fraction is defined as the number of unique
 Friedel pairs measured divided by the number that would be
 possible theoretically, ignoring centric projections and
 systematic absences.
;
_reflns_threshold_expression     'I > 2\s(I)'
_computing_cell_refinement       'SAINT V8.40B (?, 2016)'
_computing_data_collection       ?
_computing_data_reduction        'SAINT V8.40B (?, 2016)'
_computing_molecular_graphics    'Olex2 1.5 (Dolomanov et al., 2009)'
_computing_publication_material  'Olex2 1.5 (Dolomanov et al., 2009)'
_computing_structure_refinement  'XL  (Sheldrick, 2008)'
_computing_structure_solution    'SHELXT 2018/2 (Sheldrick, 2018)'
_refine_diff_density_max         0.331
_refine_diff_density_min         -0.348
_refine_diff_density_rms         0.078
_refine_ls_extinction_coef       .
_refine_ls_extinction_method     none
_refine_ls_goodness_of_fit_ref   1.067
_refine_ls_hydrogen_treatment    constr
_refine_ls_matrix_type           full
_refine_ls_number_parameters     129
_refine_ls_number_reflns         2909
_refine_ls_number_restraints     0
_refine_ls_R_factor_all          0.0152
_refine_ls_R_factor_gt           0.0144
_refine_ls_restrained_S_all      1.067
_refine_ls_shift/su_max          0.002
_refine_ls_shift/su_mean         0.000
_refine_ls_structure_factor_coef Fsqd
_refine_ls_weighting_details     
'w=1/[\s^2^(Fo^2^)+(0.0114P)^2^+0.2175P] where P=(Fo^2^+2Fc^2^)/3'
_refine_ls_weighting_scheme      calc
_refine_ls_wR_factor_gt          0.0321
_refine_ls_wR_factor_ref         0.0326
_refine_special_details          ?
_olex2_refinement_description    
;
1. Fixed Uiso
 At 1.2 times of:
  All C(H,H) groups, All N(H,H) groups, All N(H,H,H) groups
2.a Secondary CH2 refined with riding coordinates:
 N008(H00A,H00B), C00B(H00I,H00J), C00C(H00K,H00L), C00D(H00M,H00N), C00E(H00O,
 H00P)
2.b Idealised Me refined as rotating group:
 N009(H00C,H00D,H00E), N00A(H00F,H00G,H00H)
;
_atom_sites_solution_hydrogens   geom
_atom_sites_solution_primary     ?
_atom_sites_solution_secondary   ?
loop_
_atom_site_label
_atom_site_type_symbol
_atom_site_fract_x
_atom_site_fract_y
_atom_site_fract_z
_atom_site_U_iso_or_equiv
_atom_site_adp_type
_atom_site_occupancy
_atom_site_site_symmetry_order
_atom_site_calc_flag
_atom_site_refinement_flags_posn
_atom_site_refinement_flags_adp
_atom_site_refinement_flags_occupancy
_atom_site_disorder_assembly
_atom_site_disorder_group
Sb01 Sb 0.72720(2) 0.75124(2) 0.76339(2) 0.01418(4) Uani 1 1 d . . . . .

loop_
_atom_site_aniso_label
_atom_site_aniso_U_11
_atom_site_aniso_U_22
_atom_site_aniso_U_33
_atom_site_aniso_U_23
_atom_site_aniso_U_13
_atom_site_aniso_U_12
Sb01 0.01489(6) 0.01375(6) 0.01541(6) -0.00082(4) -0.00650(4) -0.00413(4)


_geom_special_details            
;
 All esds (except the esd in the dihedral angle between two l.s. planes)
 are estimated using the full covariance matrix.  The cell esds are taken
 into account individually in the estimation of esds in distances, angles
 and torsion angles; correlations between esds in cell parameters are only
 used when they are defined by crystal symmetry.  An approximate (isotropic)
 treatment of cell esds is used for estimating esds involving l.s. planes.
;
loop_
_geom_bond_atom_site_label_1
_geom_bond_atom_site_label_2
_geom_bond_distance
_geom_bond_site_symmetry_2
_geom_bond_publ_flag
Sb01 Cl02 2.8306(4) . ?
Sb01 Cl03 2.8230(4) . ?
Sb01 Cl04 2.5201(4) . ?
Sb01 Cl05 2.4100(4) . ?
Sb01 Cl06 2.4904(4) . ?
N008 H00A 0.9100 . ?
N008 H00B 0.9100 . ?
N008 C00B 1.4981(19) . ?
N008 C00D 1.494(2) . ?
N009 H00C 0.9100 . ?
N009 H00D 0.9100 . ?
N009 H00E 0.9100 . ?
N009 C00C 1.488(2) . ?
N00A H00F 0.9100 . ?
N00A H00G 0.9100 . ?
N00A H00H 0.9100 . ?
N00A C00E 1.482(2) . ?
C00B H00I 0.9900 . ?
C00B H00J 0.9900 . ?
C00B C00C 1.521(2) . ?
C00C H00K 0.9900 . ?
C00C H00L 0.9900 . ?
C00D H00M 0.9900 . ?
C00D H00N 0.9900 . ?
C00D C00E 1.518(2) . ?
C00E H00O 0.9900 . ?
C00E H00P 0.9900 . ?

loop_
_geom_angle_atom_site_label_1
_geom_angle_atom_site_label_2
_geom_angle_atom_site_label_3
_geom_angle
_geom_angle_site_symmetry_1
_geom_angle_site_symmetry_3
_geom_angle_publ_flag
Cl03 Sb01 Cl02 98.139(12) . . ?
Cl04 Sb01 Cl02 173.306(12) . . ?
Cl04 Sb01 Cl03 88.203(12) . . ?
Cl05 Sb01 Cl02 88.714(13) . . ?
Cl05 Sb01 Cl03 86.090(13) . . ?
Cl05 Sb01 Cl04 93.878(15) . . ?
Cl05 Sb01 Cl06 90.320(14) . . ?
Cl06 Sb01 Cl02 86.220(13) . . ?
Cl06 Sb01 Cl03 174.276(13) . . ?
Cl06 Sb01 Cl04 87.594(13) . . ?
H00A N008 H00B 107.7 . . ?
C00B N008 H00A 108.9 . . ?
C00B N008 H00B 108.9 . . ?
C00D N008 H00A 108.9 . . ?
C00D N008 H00B 108.9 . . ?
C00D N008 C00B 113.49(12) . . ?
H00C N009 H00D 109.5 . . ?
H00C N009 H00E 109.5 . . ?
H00D N009 H00E 109.5 . . ?
C00C N009 H00C 109.5 . . ?
C00C N009 H00D 109.5 . . ?
C00C N009 H00E 109.5 . . ?
H00F N00A H00G 109.5 . . ?
H00F N00A H00H 109.5 . . ?
H00G N00A H00H 109.5 . . ?
C00E N00A H00F 109.5 . . ?
C00E N00A H00G 109.5 . . ?
C00E N00A H00H 109.5 . . ?
N008 C00B H00I 109.4 . . ?
N008 C00B H00J 109.4 . . ?
N008 C00B C00C 111.24(13) . . ?
H00I C00B H00J 108.0 . . ?
C00C C00B H00I 109.4 . . ?
C00C C00B H00J 109.4 . . ?
N009 C00C C00B 108.99(13) . . ?
N009 C00C H00K 109.9 . . ?
N009 C00C H00L 109.9 . . ?
C00B C00C H00K 109.9 . . ?
C00B C00C H00L 109.9 . . ?
H00K C00C H00L 108.3 . . ?
N008 C00D H00M 108.8 . . ?
N008 C00D H00N 108.8 . . ?
N008 C00D C00E 113.84(13) . . ?
H00M C00D H00N 107.7 . . ?
C00E C00D H00M 108.8 . . ?
C00E C00D H00N 108.8 . . ?
N00A C00E C00D 112.38(13) . . ?
N00A C00E H00O 109.1 . . ?
N00A C00E H00P 109.1 . . ?
C00D C00E H00O 109.1 . . ?
C00D C00E H00P 109.1 . . ?
H00O C00E H00P 107.9 . . ?

loop_
_geom_torsion_atom_site_label_1
_geom_torsion_atom_site_label_2
_geom_torsion_atom_site_label_3
_geom_torsion_atom_site_label_4
_geom_torsion
_geom_torsion_site_symmetry_1
_geom_torsion_site_symmetry_2
_geom_torsion_site_symmetry_3
_geom_torsion_site_symmetry_4
_geom_torsion_publ_flag
N008 C00B C00C N009 -169.15(13) . . . . ?
N008 C00D C00E N00A 73.19(18) . . . . ?
C00B N008 C00D C00E 178.04(13) . . . . ?
C00D N008 C00B C00C -58.02(17) . . . . ?

_shelx_res_file                  
;
TITL mo_detasbcl_new_0m_a.res in P-1
    mo_detasbcl_new_0m.res
    created by SHELXL-2019/1 at 14:44:36 on 15-Dec-2023
REM Old TITL mo_DETASbCl_new_0m in P-1
REM SHELXT solution in P-1: R1 0.045, Rweak 0.005, Alpha 0.021
REM <I/s> 0.000 for 0 systematic absences, Orientation as input
REM Formula found by SHELXT: C6 N Cl6 Sb
CELL 0.71073 8.11 9.9485 9.9573 79.853 67.758 74.038
ZERR 2 0.0002 0.0002 0.0003 0.001 0.001 0.001
LATT 1
SFAC C H Cl N Sb
UNIT 8 32 12 6 2

L.S. 12 0 0
PLAN  8
SIZE 0.2 0.2 0.2
TEMP -123.15
CONF
BOND
list 4
MORE -1
BOND $H
fmap 2 53
acta
OMIT 0 -7 1
REM <olex2.extras>
REM <HklSrc "%.\\mo_DETASbCl_new_0m.hkl">
REM </olex2.extras>

WGHT    0.011400    0.217500
FVAR       0.39924
SB01  5    0.727200    0.751236    0.763395    11.00000    0.01489    0.01375 =
         0.01541   -0.00082   -0.00650   -0.00413
CL02  3    1.069154    0.615585    0.792688    11.00000    0.01791    0.01896 =
         0.02105   -0.00432   -0.00783   -0.00220
CL03  3    0.858287    0.891977    0.485611    11.00000    0.02043    0.01730 =
         0.01950   -0.00397   -0.00688   -0.00442
CL04  3    0.407309    0.851282    0.760346    11.00000    0.01674    0.02454 =
         0.02484    0.00181   -0.00996   -0.00405
CL05  3    0.736586    0.954556    0.858489    11.00000    0.02966    0.01741 =
         0.02359   -0.00314   -0.01226   -0.00717
CL06  3    0.587312    0.648820    1.015420    11.00000    0.01943    0.02377 =
         0.01831    0.00210   -0.00808   -0.00942
CL07  3    0.774703    0.466683    0.650770    11.00000    0.02958    0.02130 =
         0.02208   -0.00072   -0.01320   -0.00713
N008  4    0.796929    0.689301    0.316173    11.00000    0.01473    0.01519 =
         0.01617   -0.00134   -0.00688   -0.00274
AFIX  23
H00A  2    0.814348    0.737577    0.377407    11.00000   -1.20000
H00B  2    0.877611    0.604438    0.309074    11.00000   -1.20000
AFIX   0
N009  4    0.280853    0.779422    0.483526    11.00000    0.01555    0.01669 =
         0.02473   -0.00302   -0.00552   -0.00242
AFIX 137
H00C  2    0.258456    0.712929    0.444814    11.00000   -1.20000
H00D  2    0.194320    0.860395    0.484535    11.00000   -1.20000
H00E  2    0.277209    0.749100    0.576113    11.00000   -1.20000
AFIX   0
N00A  4    1.171629    0.667173    0.055630    11.00000    0.01434    0.02753 =
         0.01848   -0.00173   -0.00521   -0.00393
AFIX 137
H00F  2    1.141032    0.624474   -0.002346    11.00000   -1.20000
H00G  2    1.181204    0.607483    0.134231    11.00000   -1.20000
H00H  2    1.280696    0.690797    0.004498    11.00000   -1.20000
AFIX   0
C00B  1    0.606206    0.666646    0.380642    11.00000    0.01354    0.01494 =
         0.01867    0.00013   -0.00469   -0.00344
AFIX  23
H00I  2    0.587742    0.615892    0.478227    11.00000   -1.20000
H00J  2    0.589201    0.607887    0.318494    11.00000   -1.20000
AFIX   0
C00C  1    0.464905    0.805325    0.393790    11.00000    0.01240    0.01622 =
         0.02209   -0.00058   -0.00364   -0.00251
AFIX  23
H00K  2    0.494749    0.871260    0.440117    11.00000   -1.20000
H00L  2    0.465833    0.847783    0.295876    11.00000   -1.20000
AFIX   0
C00D  1    0.837385    0.767738    0.169249    11.00000    0.01547    0.01974 =
         0.01674    0.00200   -0.00511   -0.00251
AFIX  23
H00M  2    0.746725    0.858588    0.176409    11.00000   -1.20000
H00N  2    0.822449    0.713524    0.101904    11.00000   -1.20000
AFIX   0
C00E  1    1.028210    0.795476    0.105323    11.00000    0.02011    0.01932 =
         0.02238   -0.00239   -0.00447   -0.00827
AFIX  23
H00O  2    1.034463    0.867172    0.021935    11.00000   -1.20000
H00P  2    1.052312    0.833608    0.179709    11.00000   -1.20000
AFIX   0
HKLF 4




REM  mo_detasbcl_new_0m_a.res in P-1
REM wR2 = 0.0326, GooF = S = 1.067, Restrained GooF = 1.067 for all data
REM R1 = 0.0144 for 2782 Fo > 4sig(Fo) and 0.0152 for all 2909 data
REM 129 parameters refined using 0 restraints

END

WGHT      0.0114      0.2175

REM Highest difference peak  0.331,  deepest hole -0.348,  1-sigma level  0.078
Q1    1   0.5360  0.7386  0.3852  11.00000  0.05    0.33
Q2    1   0.9404  0.7768  0.1272  11.00000  0.05    0.32
Q3    1   0.7545  0.7490  0.1065  11.00000  0.05    0.28
Q4    1   0.3784  0.7960  0.4322  11.00000  0.05    0.27
Q5    1   1.0924  0.7209  0.0918  11.00000  0.05    0.26
Q6    1   1.0321  0.8266  0.0159  11.00000  0.05    0.26
Q7    1   0.4533  0.7388  0.7828  11.00000  0.05    0.25
Q8    1   0.2390  0.7738  0.7835  11.00000  0.05    0.25
;
_shelx_res_checksum              49139
_shelx_hkl_file                  
;
  -1   0   0   14.10    0.80
   1   0   0   17.30    0.80
   1   0   0   16.10    0.90
   1   0   0   15.50    0.90
  -2   0   0 2349.17  221.88
  -2   0   0 1917.91   74.49
   2   0   0 1808.52  198.78
   2   0   0 1927.01   75.69
  -3   0   0    1.00    0.60
  -3   0   0   -0.50    0.20
   3   0   0    0.40    0.40
   3   0   0    0.00    0.40
   3   0   0    0.50    0.50
  -4   0   0  379.26   10.10
  -4   0   0  381.36   10.30
   4   0   0  400.36    9.50
   4   0   0  368.36   10.10
   4   0   0  388.66   10.20
  -5   0   0    6.90    1.60
  -5   0   0   10.50    2.00
   5   0   0    6.80    1.50
   5   0   0    6.90    1.50
   5   0   0    7.60    1.40
  -6   0   0  785.02   19.70
  -6   0   0  806.12   19.70
   6   0   0  807.62   18.30
   6   0   0  800.02   19.60
   6   0   0  807.92   19.70
  -7   0   0  419.06   13.40
  -7   0   0  416.76   13.30
   7   0   0  397.16   11.60
   7   0   0  380.96   12.70
   7   0   0  398.46   13.00
  -8   0   0   27.30    4.10
   8   0   0   25.40    3.70
   8   0   0   24.70    3.30
   8   0   0   14.40    3.00
  -9   0   0  320.47   13.10
   9   0   0  322.37   13.10
   9   0   0  317.87   11.20
   8  -1   0  430.46   14.40
   8  -1   0  427.76   12.70
   8  -1   0  453.45   15.10
  -8   1   0  417.56   14.60
   7  -1   0   -0.70    0.50
   7  -1   0    0.70    1.10
   7  -1   0    0.90    0.80
  -7   1   0    0.10    0.70
   6  -1   0  162.08    7.30
   6  -1   0  164.58    6.10
   6  -1   0  169.78    7.10
  -6   1   0  176.48    7.40
  -6   1   0  174.28    7.50
   5  -1   0    1.20    0.80
   5  -1   0    1.80    0.90
   5  -1   0    1.90    0.70
  -5   1   0    2.20    1.00
  -5   1   0    1.60    0.80
   4  -1   0   11.50    1.80
   4  -1   0   10.80    1.50
   4  -1   0   12.90    1.90
  -4   1   0   10.80    1.80
  -4   1   0   16.40    2.20
   3  -1   0  863.01   53.19
   3  -1   0 1345.47  261.67
   3  -1   0  772.32   54.09
  -3   1   0  861.91   56.09
  -3   1   0  500.65  135.99
  -3   1   0  865.61   53.29
   2  -1   0  136.49    4.20
   2  -1   0  126.29    3.90
  -2   1   0  134.69    4.20
  -2   1   0  138.09    4.10
   1  -1   0 1103.79   36.80
   1  -1   0 1151.48   98.49
  -1   1   0 1096.89   36.90
  -1   1   0 1099.29   95.19
   0  -1   0    8.20    0.40
   0  -1   0    7.70    0.50
   0   1   0    8.50    0.50
   0   1   0    8.00    0.40
  -1  -1   0 1926.31   61.39
  -1  -1   0 1896.91  153.18
   1   1   0 1864.11   61.19
   1   1   0 1741.73  148.69
  -2  -1   0   28.10    1.70
  -2  -1   0   26.40    1.50
  -2  -1   0   26.20    1.50
   2   1   0   27.50    1.50
   2   1   0   24.30    1.40
  -3  -1   0 1518.95  303.37
  -3  -1   0 1102.69   67.49
  -3  -1   0 1029.70   63.29
   3   1   0 1059.69   68.39
   3   1   0 1492.55  288.97
   3   1   0 1000.10   62.29
  -4  -1   0   14.50    1.90
  -4  -1   0   14.80    1.70
  -4  -1   0   13.20    1.70
   4   1   0   17.80    2.00
   4   1   0   16.70    1.80
   4   1   0   12.80    1.80
  -5  -1   0  208.88    7.50
  -5  -1   0  219.78    7.40
  -5  -1   0  215.38    7.10
   5   1   0  207.38    7.50
   5   1   0  206.98    6.80
   5   1   0  219.88    7.40
  -6  -1   0  525.05   14.20
  -6  -1   0  518.25   14.50
   6   1   0  496.35   14.30
   6   1   0  534.75   13.50
   6   1   0  511.15   14.10
  -7  -1   0  564.04   15.90
  -7  -1   0  562.24   16.30
   7   1   0  566.94   16.20
   7   1   0  556.14   14.70
   7   1   0  533.25   15.60
  -8  -1   0   73.69    5.50
  -8  -1   0   83.49    5.70
   8   1   0   66.49    4.50
   8   1   0   79.79    5.50
  -9  -1   0   52.99    6.00
   9   1   0   59.09    4.60
   9   1   0   56.79    5.10
   8  -2   0   36.10    3.80
   8  -2   0   37.80    4.60
   8  -2   0   34.30    4.80
  -8   2   0   33.30    4.50
   7  -2   0  150.98    7.70
   7  -2   0  133.39    6.80
   7  -2   0  138.29    5.90
  -7   2   0  153.68    8.70
   6  -2   0   12.20    2.40
   6  -2   0    9.50    2.30
   6  -2   0    8.40    1.60
  -6   2   0   10.40    2.20
   5  -2   0   41.60    3.10
   5  -2   0   41.40    2.60
   5  -2   0   43.50    3.40
  -5   2   0   43.00    3.40
  -5   2   0   39.40    3.10
   4  -2   0    1.70    0.80
   4  -2   0    2.10    0.70
   4  -2   0    1.10    0.60
  -4   2   0    1.00    0.60
  -4   2   0    1.70    0.90
   3  -2   0  636.54   14.60
  -3   2   0  655.73   14.80
   2  -2   0 2877.01  226.88
   2  -2   0 2951.10   89.59
  -2   2   0 2991.30   89.19
  -2   2   0 2826.32  216.98
   1  -2   0  468.95   18.00
   1  -2   0  458.55   18.90
   1  -2   0  559.54   74.29
  -1   2   0  461.25   18.90
  -1   2   0  491.75   67.89
   0  -2   0 1960.10   97.19
   0  -2   0 1871.11   45.40
   0   2   0 1889.71   45.90
   0   2   0 1927.71   99.19
  -1  -2   0    6.40    0.70
  -1  -2   0    5.30    0.40
  -1  -2   0    4.70    0.70
   1   2   0    6.10    0.60
   1   2   0    4.80    0.70
   1   2   0    5.30    0.50
  -2  -2   0  671.23   45.70
  -2  -2   0  782.12  200.28
  -2  -2   0  645.54   43.20
   2   2   0  734.63   46.00
   2   2   0  869.21  190.68
   2   2   0  681.93   47.50
  -3  -2   0   19.60    1.60
  -3  -2   0   17.30    1.40
  -3  -2   0   18.80    1.70
   3   2   0   18.00    1.40
   3   2   0   16.60    1.50
  -4  -2   0  814.42   17.70
  -4  -2   0  858.61   18.60
   4   2   0  853.11   17.90
  -5  -2   0  199.48    6.90
  -5  -2   0  200.68    7.30
  -5  -2   0  191.68    6.70
   5   2   0  201.38    6.90
   5   2   0  191.28    6.70
  -6  -2   0  176.78    7.10
  -6  -2   0  188.38    7.20
  -6  -2   0  180.08    7.60
   6   2   0  197.88    7.30
   6   2   0  186.68    7.00
  -7  -2   0  533.15   17.00
  -7  -2   0  533.75   15.10
   7   2   0  515.25   15.00
   7   2   0  537.85   14.60
  -8  -2   0    8.50    2.30
  -8  -2   0   13.50    2.70
   8   2   0   12.60    2.70
   8   2   0   14.30    2.70
  -9  -2   0   48.20    5.50
   9   2   0   63.69    5.20
   9   2   0   52.79    4.40
   8  -3   0   75.09    4.50
   8  -3   0   78.29    6.20
   8  -3   0   87.09    5.90
  -8   3   0   78.39    5.90
   7  -3   0   20.50    2.60
   7  -3   0   19.50    3.10
   7  -3   0   13.10    2.70
   6  -3   0   -0.60    0.50
   6  -3   0    0.10    0.50
   6  -3   0    1.30    1.10
  -6   3   0    0.20    0.70
   5  -3   0  370.56   11.50
   5  -3   0  359.86    9.50
   5  -3   0  355.06   10.80
  -5   3   0  375.56   11.10
   4  -3   0  226.98    7.90
   4  -3   0  228.88    7.50
  -4   3   0  237.28    7.70
   3  -3   0  508.65   11.90
   3  -3   0  494.85   12.40
  -3   3   0  490.35   12.00
   2  -3   0    4.10    0.90
   2  -3   0    4.40    1.00
  -2   3   0    4.70    1.00
   0  -3   0    1.60    0.50
   0  -3   0    1.30    0.40
   0   3   0    1.10    0.40
   0   3   0    1.50    0.40
  -1  -3   0 1113.89  189.48
  -1  -3   0  796.32   40.80
  -1  -3   0  809.22   42.70
   1   3   0  806.82   43.70
   1   3   0 1248.98  190.48
   1   3   0  808.02   41.40
  -2  -3   0    9.80    0.80
  -2  -3   0    8.80    1.20
   2   3   0   10.20    0.80
   2   3   0    7.90    1.10
   2   3   0   11.80    1.00
  -3  -3   0  342.37    8.90
  -3  -3   0  338.77    9.00
  -3  -3   0  327.67    7.80
   3   3   0  358.76    8.00
   3   3   0  340.17    8.80
  -4  -3   0  107.79    4.10
  -4  -3   0  102.49    4.60
  -4  -3   0  103.59    4.50
   4   3   0  101.99    4.40
   4   3   0  102.79    4.00
  -5  -3   0  395.36   10.60
  -5  -3   0  417.96   11.70
  -5  -3   0  414.16   11.40
   5   3   0  404.86   10.70
   5   3   0  394.36   11.00
  -6  -3   0   59.49    4.10
  -6  -3   0   54.69    3.80
  -6  -3   0   55.79    3.60
   6   3   0   52.59    3.60
   6   3   0   57.29    3.70
  -7  -3   0   64.89    4.40
  -7  -3   0   66.59    4.50
   7   3   0   66.59    4.40
   7   3   0   57.49    4.10
  -8  -3   0    3.60    1.60
  -8  -3   0    5.40    1.80
   8   3   0    2.70    1.30
   8   3   0    4.80    1.70
  -9  -3   0   37.80    4.90
  -9  -3   0   45.60    5.20
   9   3   0   47.70    5.20
   9   3   0   42.60    4.70
   7  -4   0    9.00    2.20
   7  -4   0    5.20    1.40
   7  -4   0    8.40    2.40
   6  -4   0    7.40    2.00
   6  -4   0    7.40    1.50
   6  -4   0    7.50    1.80
  -6   4   0    7.50    2.00
   5  -4   0   35.00    3.00
   5  -4   0   37.30    2.50
   5  -4   0   34.60    3.90
  -5   4   0   36.60    3.10
   4  -4   0  908.21   20.50
  -4   4   0  939.61   20.80
   3  -4   0  174.48    6.00
   3  -4   0  188.18    6.60
  -3   4   0  182.48    6.20
   2  -4   0 2431.06   60.89
  -2   4   0 2316.67  132.79
   1  -4   0  474.85   10.90
   1  -4   0  480.65   10.70
   0  -4   0  100.89    3.50
   0  -4   0   98.79    3.00
   0   4   0   93.89    3.40
  -1  -4   0 1026.50  188.28
  -1  -4   0  949.60   47.50
  -1  -4   0  903.11   48.10
   1   4   0  904.21   49.00
   1   4   0  903.91   47.00
   1   4   0 1343.67  220.68
  -2  -4   0 1867.91   87.29
  -2  -4   0 1686.53  294.47
  -2  -4   0 1901.91   85.29
   2   4   0 1986.40   87.19
   2   4   0 1950.20   91.29
  -3  -4   0  131.39    3.90
  -3  -4   0  126.39    4.90
   3   4   0  134.69    5.00
   3   4   0  130.59    3.90
   3   4   0  126.59    4.40
  -4  -4   0 2653.73  130.09
  -4  -4   0 2468.35  129.69
   4   4   0 2377.16  404.66
   4   4   0 2478.95  127.39
   4   4   0 2544.65  136.99
  -5  -4   0 1050.69   23.00
  -5  -4   0 1010.50   21.40
   5   4   0 1010.80   22.70
   5   4   0 1013.10   21.40
  -6  -4   0   71.79    4.00
  -6  -4   0   76.49    4.80
  -6  -4   0   69.59    4.40
   6   4   0   65.19    4.20
   6   4   0   69.39    4.00
  -7  -4   0  259.67    9.10
  -7  -4   0  270.97   10.00
   7   4   0  255.77    9.60
   7   4   0  247.28    9.00
  -8  -4   0   38.10    4.50
  -8  -4   0   32.60    4.50
  -8  -4   0   39.70    4.30
   8   4   0   28.30    3.70
   8   4   0   36.80    4.10
  -9  -4   0   47.20    5.90
  -9  -4   0   41.70    5.00
   9   4   0   38.10    4.60
   9   4   0   38.10    4.80
   7  -5   0   64.49    3.90
   7  -5   0   72.29    5.80
   7  -5   0   72.39    5.20
  -7   5   0   75.59    5.40
   6  -5   0  288.77   11.20
   6  -5   0  297.87    8.80
   6  -5   0  288.77   10.40
  -6   5   0  284.37   10.40
   5  -5   0   71.99    4.80
   5  -5   0   63.89    4.20
   5  -5   0   70.49    3.60
  -5   5   0   64.29    4.20
   4  -5   0  396.46   11.30
   4  -5   0  397.86   12.00
  -4   5   0  400.36   11.40
   3  -5   0   62.59    3.70
   3  -5   0   59.99    3.40
  -3   5   0   64.99    3.60
   2  -5   0   27.80    2.20
   2  -5   0   27.40    2.10
   2  -5   0   24.80    2.00
   2  -5   0   28.90    1.90
   0  -5   0   -0.10    0.30
   0  -5   0    0.70    0.40
   0   5   0   -0.20    0.30
  -1  -5   0  849.81   49.60
  -1  -5   0  806.42  182.28
  -1  -5   0  810.02   45.80
   1   5   0  789.12   48.00
   1   5   0  788.22   45.80
   1   5   0  878.71  196.18
  -2  -5   0  250.07    7.40
  -2  -5   0  250.87    5.60
   2   5   0  250.37    7.50
   2   5   0  244.18    5.90
  -3  -5   0 1180.48   80.79
  -3  -5   0  881.81  241.98
  -3  -5   0 1145.09   76.59
   3   5   0 1202.98   84.19
   3   5   0 1147.69   77.19
   3   5   0  833.42  241.68
  -4  -5   0  160.38    6.50
  -4  -5   0  170.48    5.10
  -4  -5   0  161.18    6.30
   4   5   0  157.38    6.30
   4   5   0  165.28    5.00
   4   5   0  165.18    5.60
  -5  -5   0  607.94   13.90
  -5  -5   0  581.64   15.60
   5   5   0  617.54   14.00
   5   5   0  611.24   15.70
   5   5   0  611.24   14.90
  -6  -5   0  116.59    6.10
  -6  -5   0  126.39    5.40
   6   5   0  132.79    6.20
   6   5   0  127.19    6.20
   6   5   0  127.69    5.40
  -7  -5   0   18.00    2.60
  -7  -5   0   25.70    3.70
   7   5   0   28.00    3.70
   7   5   0   25.20    3.50
   7   5   0   21.90    2.80
  -8  -5   0  394.46   12.80
  -8  -5   0  436.06   14.50
  -8  -5   0  404.26   14.50
   8   5   0  426.56   14.30
   8   5   0  413.16   13.90
   8   5   0  417.26   13.10
  -9  -5   0   60.89    4.90
  -9  -5   0   45.30    5.30
  -9  -5   0   53.69    5.90
   9   5   0   56.99    4.70
   9   5   0   57.89    5.00
   9   5   0   67.29    5.70
   6  -6   0   27.40    4.00
   6  -6   0   30.50    2.60
   6  -6   0   29.70    4.30
   6  -6   0   32.70    4.00
   5  -6   0  621.34   16.60
   5  -6   0  609.44   17.40
   5  -6   0  616.34   17.40
  -5   6   0  613.14   16.60
   4  -6   0  563.24   14.60
   4  -6   0  544.85   13.00
   4  -6   0  526.75   14.90
   4  -6   0  546.45   15.20
   3  -6   0  260.67    7.40
   3  -6   0  252.37    8.30
   3  -6   0  252.37    8.60
   3  -6   0  245.38    8.40
   2  -6   0   77.59    3.50
   2  -6   0   90.29    4.10
   2  -6   0   92.69    4.30
   2  -6   0   87.09    4.20
   1  -6   0    3.60    1.00
   1  -6   0    3.60    0.90
   1  -6   0    4.60    1.00
   1  -6   0    2.60    0.90
   0  -6   0  252.97    7.40
   0  -6   0  253.07    6.50
   0  -6   0  253.07    6.70
   0   6   0  258.37    7.40
  -1  -6   0  338.37    7.60
  -1  -6   0  336.87    9.20
   1   6   0  340.87    9.30
   1   6   0  330.67    7.60
  -2  -6   0 1993.40   97.79
  -2  -6   0 2061.79  360.16
  -2  -6   0 1875.51   90.59
   2   6   0 2012.40   93.89
   2   6   0 1950.90  350.66
   2   6   0 1876.51   93.89
  -3  -6   0    4.70    1.20
  -3  -6   0    4.70    0.70
   3   6   0    6.50    1.50
   3   6   0    5.30    0.90
  -4  -6   0  107.29    5.30
  -4  -6   0  111.79    5.50
  -4  -6   0  125.09    4.00
   4   6   0  121.09    4.60
   4   6   0  112.59    3.90
   4   6   0  112.99    5.40
  -5  -6   0  378.76    9.60
  -5  -6   0  389.06   11.90
  -5  -6   0  367.86   11.80
   5   6   0  379.86   11.80
   5   6   0  361.16    9.60
   5   6   0  397.36   10.70
  -6  -6   0    1.90    1.10
  -6  -6   0    2.50    0.90
   6   6   0    5.00    1.20
   6   6   0    4.50    1.50
   6   6   0    2.50    1.10
  -7  -6   0    3.70    1.20
  -7  -6   0    0.90    0.80
  -7  -6   0    3.30    1.50
   7   6   0    2.80    1.20
   7   6   0    3.50    1.20
   7   6   0    3.70    1.40
  -8  -6   0  104.89    7.00
  -8  -6   0  114.69    7.00
  -8  -6   0  113.09    5.90
   8   6   0  105.79    5.80
   8   6   0  104.39    6.60
  -9  -6   0  192.58    9.80
  -9  -6   0  177.98    8.40
   9   6   0  195.28    8.70
   6  -7   0  158.88    6.20
   6  -7   0  172.98    8.80
   6  -7   0  158.78    6.20
   6  -7   0  150.08    8.30
   6  -7   0  173.48    8.10
   5  -7   0    0.50    1.00
   5  -7   0    1.00    1.00
   5  -7   0    0.10    0.60
   5  -7   0    0.80    0.90
   4  -7   0    5.30    1.60
   4  -7   0    4.20    1.40
   4  -7   0    4.10    1.40
   4  -7   0    7.10    1.50
   3  -7   0  224.38    7.10
   3  -7   0  232.18    8.10
   3  -7   0  220.38    8.20
   3  -7   0  218.48    8.00
   2  -7   0    3.10    1.00
   2  -7   0    2.70    1.00
   2  -7   0    2.10    0.90
   2  -7   0    1.60    0.80
   1  -7   0  602.54   13.60
   1  -7   0  593.74   14.00
   1  -7   0  588.84   13.90
   1  -7   0  587.84   14.80
   0  -7   0  108.59    4.00
   0  -7   0  109.19    4.70
   0  -7   0  105.99    3.80
  -1  -7   0  555.74   11.40
  -1  -7   0  510.45   13.20
   1   7   0  526.75   13.30
  -2  -7   0    3.20    1.10
  -2  -7   0    4.70    0.90
  -2  -7   0    4.70    0.70
   2   7   0    1.80    0.80
   2   7   0    4.10    0.80
  -3  -7   0  452.95   12.90
  -3  -7   0  487.95   10.00
   3   7   0  467.55   13.10
   3   7   0  492.55   10.60
  -4  -7   0   19.50    1.40
  -4  -7   0   20.30    2.80
   4   7   0   20.20    1.80
   4   7   0   19.30    2.90
  -5  -7   0   39.30    3.60
  -5  -7   0   44.40    2.50
  -5  -7   0   46.70    3.80
   5   7   0   47.00    3.10
   5   7   0   40.50    2.50
  -6  -7   0  133.29    5.20
  -6  -7   0  131.59    6.90
   6   7   0  134.79    6.00
   6   7   0  124.49    5.10
  -7  -7   0   59.79    3.70
  -7  -7   0   41.00    4.90
  -7  -7   0   56.69    4.80
   7   7   0   55.49    4.10
   7   7   0   65.69    3.90
   7   7   0   56.39    4.70
  -8  -7   0  154.48    8.70
  -8  -7   0  146.79    8.20
  -8  -7   0  145.09    6.60
   8   7   0  144.69    8.10
   8   7   0  145.79    6.70
   5  -8   0   25.20    2.80
   5  -8   0   21.30    3.30
   5  -8   0   30.60    4.20
   5  -8   0   24.90    3.80
   4  -8   0   51.89    4.20
   4  -8   0   57.39    4.20
   4  -8   0   54.39    3.40
   4  -8   0   54.09    4.20
   3  -8   0  117.59    5.00
   3  -8   0  115.39    5.70
   3  -8   0  117.19    5.90
   3  -8   0  110.39    5.70
   2  -8   0   46.70    3.20
   2  -8   0   51.99    3.70
   2  -8   0   44.60    3.00
   2  -8   0   47.00    3.30
   1  -8   0    1.60    1.00
   1  -8   0    1.20    0.70
   1  -8   0    0.50    0.60
   1  -8   0    0.60    0.60
   0  -8   0  553.84   12.70
   0  -8   0  553.34   14.00
   0  -8   0  544.25   14.60
   0  -8   0  555.74   12.40
  -1  -8   0    0.60    0.50
  -1  -8   0    0.70    0.70
  -1  -8   0    0.60    0.40
   1   8   0    1.80    1.00
  -2  -8   0  260.87    6.90
  -2  -8   0  281.07    6.50
  -2  -8   0  272.57    9.10
   2   8   0  277.87    9.30
   2   8   0  283.87    6.80
  -3  -8   0  808.82   19.70
  -3  -8   0  811.92   15.50
   3   8   0  796.92   19.70
   3   8   0  792.52   16.20
  -4  -8   0    0.10    0.60
  -4  -8   0    0.60    0.40
   4   8   0    1.20    0.90
   4   8   0    0.10    0.40
  -5  -8   0  297.77   11.10
  -5  -8   0  309.67   11.10
  -5  -8   0  315.97    8.00
   5   8   0  316.27    9.00
  -6  -8   0  169.68    8.30
  -6  -8   0  181.58    6.00
  -6  -8   0  170.68    8.40
   6   8   0  173.88    6.80
   6   8   0  170.18    6.00
  -7  -8   0   93.09    6.30
  -7  -8   0   83.59    6.10
  -7  -8   0   92.39    4.60
   7   8   0   75.99    5.70
   7   8   0   92.39    5.20
   7   8   0   92.29    4.60
  -8  -8   0  119.79    5.80
  -8  -8   0  123.09    7.70
  -8  -8   0  115.69    7.70
   8   8   0  116.09    5.80
   8   8   0  123.19    7.60
   4  -9   0   20.70    2.60
   4  -9   0   24.80    3.60
   4  -9   0   31.10    4.00
   4  -9   0   27.40    3.70
   3  -9   0  298.27    9.20
   3  -9   0  281.57   10.10
   3  -9   0  294.57   10.10
   3  -9   0  275.67   10.10
   2  -9   0  109.49    5.20
   2  -9   0  108.19    5.80
   2  -9   0  114.39    5.30
   2  -9   0  111.89    5.50
   1  -9   0  161.18    6.50
   1  -9   0  164.38    6.20
   1  -9   0  162.28    7.20
   1  -9   0  163.88    5.90
   0  -9   0   18.40    2.90
   0  -9   0   16.60    2.50
   0  -9   0   12.80    1.70
   0  -9   0   12.90    1.80
  -1  -9   0  217.98    8.20
  -1  -9   0  222.18    6.20
  -1  -9   0  228.78    6.20
   1   9   0  212.28    8.00
  -2  -9   0   32.40    3.70
  -2  -9   0   29.80    1.70
  -2  -9   0   28.40    1.60
  -2  -9   0   29.10    1.90
   2   9   0   23.80    3.10
  -3  -9   0   53.29    2.10
  -3  -9   0   55.59    4.10
   3   9   0   53.89    2.50
   3   9   0   52.59    4.10
  -4  -9   0  259.97    6.10
  -4  -9   0  252.07    9.80
   4   9   0  251.07    7.00
  -5  -9   0   71.69    5.20
  -5  -9   0   77.29    5.30
  -5  -9   0   74.49    3.00
   5   9   0   74.09    3.70
   5   9   0   70.29    5.10
  -6  -9   0  532.35   16.60
  -6  -9   0  495.55   16.40
  -6  -9   0  520.95   12.00
   6   9   0  493.05   16.20
   6   9   0  503.95   13.30
  -7  -9   0  155.28    8.60
  -7  -9   0  142.09    8.40
  -7  -9   0  145.59    5.70
   7   9   0  144.59    6.50
   7   9   0  166.08    8.70
   3 -10   0   55.09    3.80
   3 -10   0   54.09    4.30
   3 -10   0   50.79    4.00
   3 -10   0   57.09    4.50
   2 -10   0  439.06   12.60
   2 -10   0  431.76   13.70
   2 -10   0  451.75   13.00
   2 -10   0  448.46   12.50
   1 -10   0  369.56   10.70
   1 -10   0  354.46   12.10
   1 -10   0  378.86   10.30
   1 -10   0  364.36   11.20
   0 -10   0  426.96   10.60
   0 -10   0  413.16   10.90
   0 -10   0  413.66   12.50
   0 -10   0  428.16   13.40
  -1 -10   0   23.60    3.20
  -1 -10   0   17.40    1.60
  -1 -10   0   19.10    1.70
  -1 -10   0   16.80    1.80
  -2 -10   0  192.98    5.10
  -2 -10   0  205.68    5.30
  -2 -10   0  193.28    8.10
  -3 -10   0   85.39    2.50
  -3 -10   0   93.19    5.70
  -3 -10   0   86.69    2.60
  -4 -10   0  194.48    8.80
  -4 -10   0  194.78    4.40
   4  10   0  204.48    5.80
   4  10   0  198.18    9.00
  -5 -10   0    7.30    2.20
  -5 -10   0    3.80    1.70
  -5 -10   0    5.10    0.80
   5  10   0    5.70    1.20
   5  10   0    4.70    1.70
  -6 -10   0  270.27   11.50
  -6 -10   0  294.27    7.20
  -6 -10   0  255.67   11.50
   6  10   0  271.47    8.60
   6  10   0  307.57   12.20
  -7 -10   0  135.09    8.30
  -7 -10   0  144.09    8.70
  -7 -10   0  134.19    5.00
   7  10   0  128.39    8.00
   2 -11   0   76.89    4.80
   2 -11   0   64.69    5.00
   2 -11   0   75.59    4.50
   2 -11   0   71.39    4.60
   1 -11   0  160.88    6.10
   1 -11   0  155.18    7.80
   1 -11   0  150.68    6.90
   1 -11   0  150.18    6.30
   0 -11   0    8.20    1.40
   0 -11   0   10.70    2.20
   0 -11   0   15.10    2.10
   0 -11   0   10.30    2.40
  -1 -11   0  273.47   10.10
  -1 -11   0  269.07   10.70
  -1 -11   0  276.27    7.50
  -1 -11   0  267.57    7.30
  -1 -11   0  274.17    7.30
  -2 -11   0   -0.50    0.50
  -2 -11   0    0.20    0.40
  -2 -11   0    0.70    0.50
   2  11   0   -0.10    0.70
  -3 -11   0  198.48    8.90
   3  11   0  197.48    9.00
  -4 -11   0   44.30    5.00
   4  11   0   48.60    2.20
   4  11   0   53.69    4.70
  -5 -11   0  416.46   15.00
  -5 -11   0  404.56   14.60
   5  11   0  415.26    9.90
   5  11   0  414.86   14.80
  -1 -12   0  125.49    7.30
  -1 -12   0  104.69    3.80
  -1 -12   0  105.29    4.00
  -1 -12   0  116.39    6.50
  -1 -12   0  101.59    3.90
  -2 -12   0   56.59    1.70
  -2 -12   0   58.39    4.80
  -2 -12   0   53.69    1.70
  -3 -12   0   11.90    2.80
   3  12   0    6.90    2.20
  -2 -12   1    2.10    1.40
   5  11  -1    7.30    1.50
   5  11  -1    5.80    2.10
  -5 -11   1    7.60    2.40
  -5 -11   1    9.10    2.60
   4  11  -1  428.56   10.90
   4  11  -1  413.76   14.90
  -4 -11   1  434.66   15.00
  -4 -11   1  422.76   14.80
   3  11  -1   52.59    5.80
   3  11  -1   41.70    2.60
  -3 -11   1   41.90    4.80
   2  11  -1  450.45   14.80
  -2 -11   1  452.25   11.40
  -2 -11   1  428.96   14.30
  -1 -11   1   31.90    2.40
  -1 -11   1   32.20    4.00
  -1 -11   1   28.00    0.90
  -1 -11   1   27.50    1.00
   0 -11   1  276.27    8.50
   0 -11   1  289.97   10.70
   0 -11   1  250.67   10.10
   0 -11   1  288.27    7.50
   1 -11   1    0.30    0.70
   1 -11   1    0.10    0.80
   1 -11   1    0.00    0.60
   1 -11   1    0.70    0.90
   6  10  -1  144.29    6.40
   6  10  -1  151.18    8.50
  -6 -10   1  172.08    9.00
  -6 -10   1  134.99    8.20
   5  10  -1  185.48    9.30
   5  10  -1  202.68    7.20
  -5 -10   1  197.48    9.50
  -5 -10   1  219.48    9.90
   4  10  -1   78.89    5.60
   4  10  -1   74.09    3.80
  -4 -10   1   82.89    5.70
  -4 -10   1   80.99    5.60
   3  10  -1  586.94   13.60
   3  10  -1  581.44   17.30
  -3 -10   1  588.24   17.20
   2  10  -1    7.20    1.30
  -2 -10   1    7.30    1.40
  -2 -10   1    5.00    1.70
  -1 -10   1  259.57   10.00
  -1 -10   1  281.27    8.10
  -1 -10   1  274.97    6.00
  -1 -10   1  278.97    6.00
   0 -10   1  102.99    3.90
   0 -10   1  102.59    5.80
   0 -10   1  105.09    5.70
   0 -10   1   97.09    4.50
   1 -10   1  214.18    8.40
   1 -10   1  196.08    7.20
   1 -10   1  204.18    6.80
   1 -10   1  192.38    8.10
   2 -10   1    6.30    1.70
   2 -10   1    5.40    1.50
   2 -10   1    3.00    1.20
   2 -10   1    4.50    1.60
   3 -10   1  230.18    8.70
   3 -10   1  204.88    8.50
   3 -10   1  211.68    8.50
   3 -10   1  200.48    8.30
   7   9  -1  227.88   10.80
  -7  -9   1  237.98   11.20
  -7  -9   1  233.38   10.90
   6   9  -1   84.89    4.90
   6   9  -1   86.99    6.10
  -6  -9   1   72.39    5.60
  -6  -9   1   83.19    6.10
   5   9  -1   24.10    3.70
   5   9  -1   24.00    2.70
  -5  -9   1   18.50    3.00
  -5  -9   1   25.10    3.60
   4   9  -1  299.37   11.10
   4   9  -1  282.97    8.40
  -4  -9   1  283.87   10.80
  -4  -9   1  278.17   10.70
   3   9  -1  346.57    9.10
  -3  -9   1  336.07   11.60
   2   9  -1   25.00    2.00
   2   9  -1   28.80    3.70
  -2  -9   1   27.40    2.20
  -2  -9   1   26.70    3.30
   1   9  -1  258.67    9.30
  -1  -9   1  242.88    5.50
  -1  -9   1  240.98    5.60
  -1  -9   1  234.58    7.20
  -1  -9   1  248.28    9.10
   0  -9   1  200.88    7.90
   0  -9   1  204.98    5.80
   0  -9   1  199.28    6.60
   0  -9   1  202.38    7.90
   1  -9   1    2.60    1.10
   1  -9   1    3.70    1.30
   1  -9   1    0.90    0.70
   1  -9   1    2.50    1.00
   2  -9   1   87.09    4.70
   2  -9   1   91.99    5.00
   2  -9   1   95.19    4.70
   2  -9   1   80.39    4.70
   3  -9   1    4.30    1.40
   3  -9   1    4.40    1.40
   3  -9   1    5.00    1.60
   3  -9   1    4.70    1.50
   4  -9   1   20.50    3.20
   4  -9   1   27.80    3.50
   4  -9   1   25.10    3.70
   4  -9   1   23.80    3.10
   7   8  -1  108.39    7.00
   7   8  -1  114.49    5.00
  -7  -8   1  117.19    7.30
  -7  -8   1  109.29    7.20
   6   8  -1  340.17   10.80
   6   8  -1  321.57   12.30
   6   8  -1  324.47    8.80
  -6  -8   1  349.57   12.80
  -6  -8   1  327.57   12.30
   5   8  -1  394.56   11.40
  -5  -8   1  425.26   13.70
  -5  -8   1  394.76   13.30
   4   8  -1   23.90    2.60
  -4  -8   1   24.50    3.50
  -4  -8   1   21.90    3.10
   3   8  -1  303.57    8.30
   3   8  -1  295.67   10.40
  -3  -8   1  318.97   10.60
   2   8  -1  170.58    5.50
   2   8  -1  166.68    7.10
  -2  -8   1  163.48    5.60
  -2  -8   1  151.28    6.80
   1   8  -1   78.09    3.50
   1   8  -1   88.89    4.80
  -1  -8   1   80.89    3.50
  -1  -8   1   79.59    2.50
  -1  -8   1   88.29    4.80
  -1  -8   1   79.49    2.50
   0  -8   1  221.18    8.00
   0  -8   1  222.88    6.10
   0  -8   1  227.58    6.90
   1  -8   1  322.97    9.20
   1  -8   1  332.07   10.00
   1  -8   1  316.27    8.60
   1  -8   1  312.07    9.80
   2  -8   1  160.38    6.50
   2  -8   1  172.68    6.60
   2  -8   1  177.48    6.40
   2  -8   1  164.88    6.60
   3  -8   1  309.97    9.90
   3  -8   1  317.87   10.50
   3  -8   1  332.77   10.00
   3  -8   1  324.37   10.30
   4  -8   1    5.30    1.60
   4  -8   1    5.70    1.50
   4  -8   1    5.90    1.70
   4  -8   1    7.40    1.90
   5  -8   1   18.80    2.80
   5  -8   1   15.10    2.90
   5  -8   1   27.60    4.00
   5  -8   1   17.80    2.60
   8   7  -1   13.80    2.90
   8   7  -1    9.70    2.60
   8   7  -1    6.90    1.80
  -8  -7   1    9.20    2.70
  -8  -7   1    5.40    2.20
   7   7  -1    0.00    0.80
   7   7  -1    0.60    0.70
  -7  -7   1    1.30    1.20
  -7  -7   1    1.60    1.20
   6   7  -1  322.07    9.00
   6   7  -1  313.77   10.50
  -6  -7   1  328.57    9.10
  -6  -7   1  305.57   11.60
  -6  -7   1  314.37   11.60
   5   7  -1    0.80    0.70
   5   7  -1    0.40    0.50
  -5  -7   1   -0.60    0.40
  -5  -7   1    0.40    0.50
  -5  -7   1    0.80    0.90
   4   7  -1   64.99    3.60
   4   7  -1   71.49    4.70
  -4  -7   1   74.09    2.60
  -4  -7   1   71.69    4.60
  -4  -7   1   70.39    4.50
   3   7  -1   45.70    3.50
   3   7  -1   42.60    2.60
  -3  -7   1   43.60    1.30
  -3  -7   1   43.70    3.40
   2   7  -1  267.07    9.10
   2   7  -1  272.27    7.40
  -2  -7   1  283.87    9.30
  -2  -7   1  290.87    7.80
   1   7  -1  218.58    7.60
   1   7  -1  211.48    6.20
  -1  -7   1  210.48    6.20
  -1  -7   1  209.48    4.80
  -1  -7   1  216.98    4.80
  -1  -7   1  217.08    7.60
   0  -7   1  895.71   17.60
   1  -7   1  111.89    4.60
   1  -7   1  101.49    4.70
   1  -7   1  109.19    4.80
   1  -7   1  111.69    4.20
   2  -7   1  181.38    6.60
   2  -7   1  170.48    6.40
   2  -7   1  185.78    6.40
   2  -7   1  189.18    6.60
   3  -7   1   27.60    2.40
   3  -7   1   25.80    3.00
   3  -7   1   24.40    2.30
   3  -7   1   21.50    2.90
   4  -7   1  306.67    9.60
   4  -7   1  290.07   10.30
   4  -7   1  303.87   10.20
   4  -7   1  275.37    8.90
   5  -7   1   52.19    4.30
   5  -7   1   58.49    4.60
   5  -7   1   56.69    3.70
   5  -7   1   53.39    3.90
   6  -7   1   95.59    5.50
   6  -7   1   87.29    6.10
   6  -7   1   86.79    6.00
   6  -7   1   85.79    4.80
   8   6  -1  514.65   16.20
   8   6  -1  501.15   14.60
   8   6  -1  492.85   16.30
  -8  -6   1  482.35   17.00
  -8  -6   1  512.65   16.70
   7   6  -1  203.28    7.50
   7   6  -1  180.98    8.70
  -7  -6   1  201.98    9.00
  -7  -6   1  187.68    7.30
   6   6  -1  197.98    8.50
   6   6  -1  188.68    7.80
   6   6  -1  184.18    6.50
  -6  -6   1  193.38    6.70
  -6  -6   1  189.88    8.40
   5   6  -1  181.08    7.00
   5   6  -1  187.08    5.80
   5   6  -1  173.28    7.60
  -5  -6   1  188.18    8.00
  -5  -6   1  181.78    5.80
  -5  -6   1  187.78    7.80
   4   6  -1    4.80    0.90
   4   6  -1    5.00    1.20
   4   6  -1    4.60    1.40
  -4  -6   1    4.70    1.40
  -4  -6   1    4.10    0.80
  -4  -6   1    4.50    1.30
   3   6  -1  131.59    4.70
   3   6  -1  134.09    5.80
  -3  -6   1  130.79    5.70
  -3  -6   1  113.79    3.20
  -3  -6   1  133.49    5.80
   2   6  -1   97.19    3.70
   2   6  -1  102.09    4.80
  -2  -6   1   97.19    2.00
  -2  -6   1   96.29    3.90
  -2  -6   1   94.99    4.60
   1   6  -1  649.93   13.60
   1   6  -1  628.04   15.10
  -1  -6   1  637.64   13.50
  -1  -6   1  609.94   11.70
  -1  -6   1  631.74   11.70
  -1  -6   1  628.94   15.10
   0   6  -1  276.47    7.30
   0  -6   1  268.37    6.40
   0  -6   1  268.07    7.20
   0  -6   1  272.37    8.20
   2  -6   1  559.84   13.20
   2  -6   1  552.74   13.60
   2  -6   1  547.15   13.20
   2  -6   1  552.04   13.30
   3  -6   1  274.57    8.20
   3  -6   1  270.07    8.10
   3  -6   1  262.47    8.50
   3  -6   1  270.57    8.80
   4  -6   1   16.80    2.30
   4  -6   1   21.40    2.90
   4  -6   1   19.70    2.40
   4  -6   1   18.70    2.70
   5  -6   1   60.89    4.50
   5  -6   1   59.69    3.90
   5  -6   1   55.39    4.30
  -6   6  -1  378.46   12.00
   6  -6   1  371.16   13.10
   6  -6   1  369.46   13.30
   6  -6   1  368.66   11.80
   7  -6   1  158.88    8.80
   7  -6   1  155.08    7.50
   7  -6   1  157.48    8.60
   7  -6   1  157.08    6.80
   8   5  -1  164.38    8.30
   8   5  -1  163.78    7.50
   8   5  -1  149.79    8.10
  -8  -5   1  143.09    8.40
  -8  -5   1  156.38    8.20
   7   5  -1  331.67   10.50
   7   5  -1  336.77   11.80
  -7  -5   1  331.47   11.90
  -7  -5   1  314.67   10.40
   6   5  -1   67.79    4.60
   6   5  -1   65.19    4.40
   6   5  -1   66.09    3.80
  -6  -5   1   76.09    4.90
  -6  -5   1   68.29    3.80
   5   5  -1  463.95   12.70
   5   5  -1  448.76   13.10
   5   5  -1  445.96   11.20
  -5  -5   1  485.55   13.50
  -5  -5   1  456.05   11.30
  -5  -5   1  469.95   13.60
   4   5  -1  128.99    4.10
   4   5  -1  123.89    5.60
   4   5  -1  118.19    5.00
  -4  -5   1  117.69    5.50
  -4  -5   1  125.19    5.70
  -4  -5   1  115.79    4.00
   3   5  -1  268.17    6.20
   3   5  -1  274.27    7.70
   3   5  -1  274.67    8.60
  -3  -5   1  281.17    6.30
  -3  -5   1  267.57    8.50
  -3  -5   1  283.87    8.70
   2   5  -1 2179.68  105.89
   2   5  -1 1823.62  342.37
   2   5  -1 2168.38  100.09
  -2  -5   1 2157.38  104.39
  -2  -5   1 1497.85  281.67
  -2  -5   1 2285.47  101.99
   1   5  -1   97.59    4.20
   1   5  -1  100.99    3.50
  -1  -5   1  101.49    2.30
  -1  -5   1  106.39    4.40
  -1  -5   1   96.89    3.50
  -1  -5   1  103.69    2.30
   0   5  -1  903.81   40.90
   0   5  -1  916.91   43.90
   0   5  -1 1344.87  188.28
   0  -5   1  943.61   44.30
   0  -5   1  907.91   41.50
   0  -5   1  733.63  139.09
   1  -5   1  344.57    8.40
   1  -5   1  368.46    9.00
   1  -5   1  345.47    9.10
   1  -5   1  353.86    8.90
   2  -5   1  246.98    7.00
   2  -5   1  244.48    7.50
   2  -5   1  249.28    7.10
   2  -5   1  252.47    7.30
   3  -5   1    2.90    0.90
   3  -5   1    2.60    1.00
   3  -5   1    0.80    0.60
  -4   5  -1  572.54   14.00
   4  -5   1  569.14   14.80
   4  -5   1  560.24   13.90
   4  -5   1  565.64   15.10
  -5   5  -1  130.49    5.70
   5  -5   1  127.19    5.60
   5  -5   1  113.99    6.10
   5  -5   1  127.39    6.50
  -6   5  -1   21.20    3.00
   6  -5   1   19.60    2.80
   6  -5   1   20.30    3.20
   6  -5   1   18.70    2.50
   6  -5   1   17.90    3.00
  -7   5  -1  139.99    7.80
   7  -5   1  160.68    8.50
   7  -5   1  153.28    6.60
   7  -5   1  169.98    7.60
   7  -5   1  158.38    8.50
   8   4  -1  345.27   12.30
   8   4  -1  380.06   12.40
   8   4  -1  350.56   13.40
  -8  -4   1  332.17   12.50
  -8  -4   1  358.96   13.60
   7   4  -1   56.69    4.30
   7   4  -1   57.09    4.00
  -7  -4   1   46.90    4.30
  -7  -4   1   57.39    4.00
  -7  -4   1   47.90    4.10
   6   4  -1    7.10    1.90
   6   4  -1    5.70    1.60
   6   4  -1    6.40    1.50
  -6  -4   1    6.70    1.70
  -6  -4   1    8.10    1.70
   5   4  -1   93.89    4.20
   5   4  -1   89.99    4.80
   5   4  -1   92.09    4.80
  -5  -4   1   96.79    5.00
  -5  -4   1   93.79    5.10
  -5  -4   1   93.59    4.20
   4   4  -1  343.07    8.50
   4   4  -1  343.57    9.90
  -4  -4   1  340.97    8.60
  -4  -4   1  344.37   10.00
  -4  -4   1  348.67   10.30
   3   4  -1  581.14   13.10
   3   4  -1  538.85   13.40
   3   4  -1  546.25   11.40
  -3  -4   1  559.44   11.50
  -3  -4   1  534.35   13.40
  -3  -4   1  594.14   13.80
   2   4  -1  178.98    5.20
   2   4  -1  184.98    4.00
  -2  -4   1  179.98    6.00
  -2  -4   1  186.38    4.00
  -2  -4   1  181.08    5.50
   1   4  -1 3558.24  116.29
   1   4  -1 3069.69  296.37
  -1  -4   1 3652.73  304.67
  -1  -4   1 3427.66  114.39
   0   4  -1    0.20    0.30
   0   4  -1   -0.10    0.30
   0  -4   1    0.00    0.30
   0  -4   1   -0.10    0.30
   0  -4   1    0.10    0.20
   2  -4   1   55.69    3.00
   2  -4   1   61.09    2.70
   2  -4   1   63.89    3.00
  -3   4  -1  159.68    5.30
   3  -4   1  154.18    5.70
   3  -4   1  151.68    5.80
   3  -4   1  155.78    5.10
  -4   4  -1    3.10    1.00
   4  -4   1    3.40    1.00
   4  -4   1    3.30    1.10
  -5   4  -1  689.83   16.90
   5  -4   1  702.63   16.90
   5  -4   1  743.63   18.40
  -6   4  -1  224.98    8.30
   6  -4   1  201.78    8.80
   6  -4   1  223.98    7.70
   6  -4   1  234.48    8.40
  -7   4  -1  163.98    7.50
   7  -4   1  162.38    6.70
   7  -4   1  178.08    7.70
   7  -4   1  160.48    8.30
  -8   4  -1    6.70    2.10
   8  -4   1    6.00    1.60
   8  -4   1    5.70    1.90
   8  -4   1    6.20    2.30
   9   3  -1   57.99    6.90
   9   3  -1   58.29    4.80
   9   3  -1   60.99    5.10
  -9  -3   1   51.79    6.20
   8   3  -1    0.20    0.90
   8   3  -1    3.50    1.50
  -8  -3   1    0.10    0.90
  -8  -3   1    1.30    1.20
   7   3  -1  116.79    6.10
   7   3  -1  123.39    6.20
  -7  -3   1  126.59    6.50
  -7  -3   1  124.19    6.20
   6   3  -1   73.39    4.40
   6   3  -1   62.99    3.90
  -6  -3   1   77.69    5.00
  -6  -3   1   69.29    4.30
  -6  -3   1   64.59    4.00
   5   3  -1    8.00    1.50
   5   3  -1    7.50    1.50
  -5  -3   1    7.50    1.40
  -5  -3   1    9.10    2.00
  -5  -3   1    7.30    1.50
   4   3  -1  487.05   11.50
   4   3  -1  503.05   12.80
   4   3  -1  493.45   12.40
  -4  -3   1  484.55   12.40
  -4  -3   1  508.25   13.00
  -4  -3   1  494.45   11.60
   3   3  -1  100.59    4.20
   3   3  -1   98.39    4.10
   3   3  -1  109.69    3.50
  -3  -3   1   96.49    3.30
  -3  -3   1   94.39    4.10
  -3  -3   1   92.39    4.10
   2   3  -1  622.44   13.10
   2   3  -1  608.84   13.50
   2   3  -1  604.04   11.70
  -2  -3   1  622.54   11.80
  -2  -3   1  609.34   13.50
   1   3  -1   56.69    2.30
   1   3  -1   56.19    2.60
  -1  -3   1   58.19    2.30
   0   3  -1  102.19    3.20
   0   3  -1   96.49    3.40
   0  -3   1   92.09    3.30
   0  -3   1   95.89    2.40
   0  -3   1   96.19    3.00
  -1   3  -1    4.70    0.80
   1  -3   1    5.40    0.80
   1  -3   1    5.80    0.80
   1  -3   1    5.20    0.80
   1  -3   1    4.70    0.80
  -2   3  -1  684.03   30.60
  -2   3  -1  666.43   85.59
  -2   3  -1  707.43   29.60
   2  -3   1  696.33   30.60
   2  -3   1  738.63  113.49
   2  -3   1  659.23   31.20
  -3   3  -1  473.45   11.60
  -3   3  -1  481.65   10.80
   3  -3   1  451.85   10.60
   3  -3   1  456.65   11.40
  -4   3  -1  347.57   10.10
  -4   3  -1  359.86    9.40
   4  -3   1  333.97   10.00
   4  -3   1  348.37    9.30
  -5   3  -1  485.05   13.70
  -5   3  -1  486.85   12.60
   5  -3   1  490.55   13.60
   5  -3   1  471.75   12.50
  -6   3  -1  169.68    6.90
   6  -3   1  165.08    7.50
   6  -3   1  166.88    6.30
   6  -3   1  153.28    6.60
  -7   3  -1   46.00    3.80
   7  -3   1   49.40    4.40
   7  -3   1   41.10    3.50
   7  -3   1   44.50    3.30
   8  -3   1  251.47   11.20
   8  -3   1  271.77   10.50
   8  -3   1  269.87    9.50
   9   2  -1   20.60    3.60
   9   2  -1   11.50    2.50
  -9  -2   1   15.70    3.30
   8   2  -1    8.10    2.00
   8   2  -1   10.20    2.50
  -8  -2   1    6.90    2.00
   7   2  -1   39.90    3.60
   7   2  -1   42.00    3.40
   7   2  -1   42.30    5.00
  -7  -2   1   41.40    3.60
   6   2  -1  114.19    5.50
   6   2  -1  107.69    5.90
   6   2  -1  112.59    5.30
  -6  -2   1  106.09    5.40
  -6  -2   1  105.49    5.30
  -6  -2   1  106.49    5.90
   5   2  -1  116.49    5.00
   5   2  -1  112.99    5.60
   5   2  -1   95.69    4.60
  -5  -2   1  116.19    5.60
  -5  -2   1  117.29    5.00
  -5  -2   1  110.39    5.00
   4   2  -1  634.94   14.20
   4   2  -1  630.64   14.40
   4   2  -1  630.24   15.30
  -4  -2   1  614.64   15.10
  -4  -2   1  624.54   14.50
  -4  -2   1  605.94   14.10
   3   2  -1 1111.49  268.27
   3   2  -1  856.91   62.99
   3   2  -1  781.42   64.29
  -3  -2   1  776.62  270.47
  -3  -2   1  848.82   61.99
  -3  -2   1  734.83   61.49
   2   2  -1   38.30    2.20
   2   2  -1   35.00    1.60
   2   2  -1   38.60    2.10
   2   2  -1   40.20    2.20
  -2  -2   1   37.70    1.70
  -2  -2   1   35.80    2.10
  -2  -2   1   36.30    2.00
   1   2  -1 1275.37   59.99
   1   2  -1 1294.27   57.59
  -1  -2   1 1327.77   59.89
  -1  -2   1 1328.87   58.09
   0   2  -1   37.40    1.70
   0   2  -1   37.40    1.00
   0   2  -1   39.00    1.60
   0  -2   1   36.80    1.00
   0  -2   1   36.60    1.60
   0  -2   1   35.40    1.70
  -1   2  -1  271.17    6.00
  -1   2  -1  279.57    6.50
   1  -2   1  268.27    6.40
   1  -2   1  263.27    5.60
   1  -2   1  268.67    6.00
  -2   2  -1  576.34   32.40
  -2   2  -1  551.14   29.80
  -2   2  -1  563.94  112.39
   2  -2   1  565.44   31.20
   2  -2   1  601.04   33.20
   2  -2   1  486.85  102.99
  -3   2  -1  530.85   12.50
   3  -2   1  548.65   12.60
  -4   2  -1  864.41   19.10
   4  -2   1  831.62   18.90
   4  -2   1  866.61   18.20
  -5   2  -1  536.55   13.40
  -5   2  -1  537.95   14.20
   5  -2   1  534.35   12.80
   5  -2   1  533.45   13.20
   5  -2   1  507.05   14.00
  -6   2  -1  393.06   11.70
  -6   2  -1  388.76   16.90
   6  -2   1  395.86   11.60
   6  -2   1  396.66   12.40
   6  -2   1  412.06   11.10
  -7   2  -1   21.50    3.20
   7  -2   1   21.70    3.00
   7  -2   1   17.40    2.50
   7  -2   1   17.70    2.90
   8  -2   1  109.59    7.00
   8  -2   1  117.39    5.90
   8  -2   1  122.89    6.70
   8   1  -1   35.80    4.90
   8   1  -1   22.20    3.00
   8   1  -1   21.10    3.40
  -8  -1   1   20.20    3.60
   7   1  -1  169.38    7.70
   7   1  -1  166.48    6.90
   7   1  -1  168.08    8.10
   6   1  -1  584.54   14.30
   6   1  -1  559.24   15.10
   6   1  -1  547.55   15.60
  -6  -1   1  545.85   14.30
  -6  -1   1  540.55   15.10
  -6  -1   1  553.64   15.80
   5   1  -1  442.86   12.40
   5   1  -1  417.46   11.60
   5   1  -1  413.76   10.90
  -5  -1   1  410.76   12.20
  -5  -1   1  415.76   11.10
   4   1  -1 1684.63  100.09
   4   1  -1 1759.62  107.09
   4   1  -1 1909.21  382.56
  -4  -1   1 2256.97  405.76
  -4  -1   1 1817.92  102.59
  -4  -1   1 1835.32  108.39
   3   1  -1 1475.05   82.09
   3   1  -1 1548.95  326.67
   3   1  -1 1503.55   86.29
  -3  -1   1 1468.95   81.59
  -3  -1   1 1452.45   85.19
  -3  -1   1 1224.28  294.77
   2   1  -1  136.49    3.90
   2   1  -1  128.49    4.30
   2   1  -1  137.59    4.00
  -2  -1   1  134.29    4.00
  -2  -1   1  135.19    4.40
  -2  -1   1  135.09    3.90
   1   1  -1  165.78    3.80
   1   1  -1  161.68    4.30
   1   1  -1  163.48    4.40
   1   1  -1  168.68    4.20
  -1  -1   1  168.78    4.30
  -1  -1   1  171.48    4.50
   0   1  -1  754.22   32.40
   0   1  -1  772.72   31.80
   0  -1   1  798.42   33.60
   0  -1   1  738.43   84.59
  -1   1  -1   47.00    1.70
  -1   1  -1   48.50    1.30
  -1   1  -1   48.70    1.90
   1  -1   1   48.30    1.20
   1  -1   1   44.00    1.80
   1  -1   1   45.70    1.60
  -2   1  -1 3494.05  231.68
  -2   1  -1 3804.82  106.49
   2  -1   1 3922.51  251.67
   2  -1   1 3734.83  106.09
  -3   1  -1  441.96   10.50
   3  -1   1  430.16    9.80
   3  -1   1  441.06   10.40
  -4   1  -1  365.66    9.40
  -4   1  -1  374.26   10.00
   4  -1   1  365.26    9.40
   4  -1   1  357.36    9.20
   4  -1   1  372.46   10.00
  -5   1  -1  140.79    5.60
  -5   1  -1  139.99    5.90
   5  -1   1  143.19    5.30
   5  -1   1  146.09    6.00
   5  -1   1  136.49    5.40
  -6   1  -1  646.84   16.40
  -6   1  -1  649.34   17.00
   6  -1   1  630.24   16.80
   6  -1   1  646.44   15.50
   6  -1   1  644.54   16.20
  -7   1  -1   15.50    2.70
   7  -1   1    9.60    1.90
   7  -1   1   12.50    2.40
   7  -1   1   12.10    2.20
  -8   1  -1   56.09    4.80
   8  -1   1   57.39    4.80
   8  -1   1   52.59    4.30
   8  -1   1   40.50    3.50
  -9   1  -1  216.88   10.20
   9  -1   1  221.58    9.00
   9  -1   1  220.98   10.60
   8   0  -1   15.50    2.60
   8   0  -1   20.70    3.70
   8   0  -1   24.20    3.90
  -8   0   1   17.10    3.30
   7   0  -1   24.90    3.60
   7   0  -1   26.30    3.10
   7   0  -1   20.00    3.10
   6   0  -1  702.53   16.50
   6   0  -1  697.23   18.10
   6   0  -1  721.03   18.60
  -6   0   1  680.33   18.40
   5   0  -1  540.15   14.30
   5   0  -1  563.34   14.70
   5   0  -1  550.84   13.00
  -5   0   1  537.65   14.70
   4   0  -1  286.57    7.60
   4   0  -1  263.47    8.60
   4   0  -1  273.67    8.40
  -4   0   1  301.47    8.70
  -4   0   1  285.07    7.70
  -4   0   1  304.77    9.10
   3   0  -1 1769.32   87.79
   3   0  -1 1718.13  294.07
   3   0  -1 1621.14   87.69
  -3   0   1 1645.04   88.69
  -3   0   1 1441.66  284.57
   2   0  -1    0.40    0.30
   2   0  -1    0.60    0.40
   2   0  -1    0.70    0.40
  -2   0   1    0.10    0.30
  -2   0   1    0.90    0.40
   1   0  -1 1046.30  138.39
   1   0  -1  998.70   47.10
   1   0  -1  955.50   44.60
  -1   0   1  955.40   44.80
  -1   0   1 1142.09  144.19
  -1   0   1  953.50   46.30
   0   0  -1   15.20    0.70
  -1   0  -1 1539.75  119.89
   1   0   1 1589.14  124.39
   1   0   1 1490.95   50.89
  -2   0  -1  270.37    6.30
   2   0   1  256.27    6.20
   2   0   1  264.47    5.90
  -4   0  -1  221.58    6.80
  -4   0  -1  210.78    6.50
   4   0   1  210.18    6.30
   4   0   1  215.18    6.70
   4   0   1  198.68    6.30
  -5   0  -1  315.17    9.50
  -5   0  -1  319.57    9.30
   5   0   1  311.87    9.10
   5   0   1  312.87    8.80
   5   0   1  315.77    9.50
  -6   0  -1  159.88    6.60
  -6   0  -1  144.09    6.40
   6   0   1  154.28    6.40
   6   0   1  146.49    5.90
   6   0   1  138.49    6.40
  -7   0  -1  116.59    6.10
   7   0   1  124.09    6.40
   7   0   1  111.29    5.40
   7   0   1  117.29    6.00
  -8   0  -1  153.58    7.90
   8   0   1  153.78    6.90
   8   0   1  159.88    8.10
  -9   0  -1  254.67   11.10
  -9   0  -1  249.97   11.30
   9   0   1  273.77   11.70
   9   0   1  270.67   10.20
   8  -1  -1    0.60    1.00
   8  -1  -1    0.10    0.70
   8  -1  -1    0.40    1.10
  -8   1   1    1.30    1.20
   7  -1  -1  352.56   12.60
   7  -1  -1  381.16   10.90
   7  -1  -1  358.06   12.60
   6  -1  -1  120.69    6.20
   6  -1  -1  113.29    6.10
   6  -1  -1  111.49    4.80
  -6   1   1  112.79    6.20
   5  -1  -1  910.21   21.20
   5  -1  -1  912.61   21.30
   5  -1  -1  924.71   19.20
  -5   1   1  877.41   21.30
   4  -1  -1   41.50    3.00
   4  -1  -1   41.70    3.00
   4  -1  -1   41.80    2.30
  -4   1   1   39.30    2.90
   3  -1  -1  270.07    8.00
   3  -1  -1  292.87    6.80
   3  -1  -1  275.87    7.90
  -3   1   1  281.67    8.10
   2  -1  -1    5.90    1.00
   2  -1  -1    3.30    0.80
   2  -1  -1    2.60    0.50
  -2   1   1    3.90    0.90
   1  -1  -1  131.09    3.80
   1  -1  -1  136.69    2.80
  -1   1   1  130.69    3.90
   0  -1  -1 1446.46  105.19
   0  -1  -1 1624.34   52.09
   0   1   1 1552.94   51.49
  -1  -1  -1    1.90    0.40
  -1  -1  -1    1.50    0.30
   1   1   1    1.60    0.40
   1   1   1    1.90    0.30
   1   1   1    1.40    0.30
  -2  -1  -1  765.32   46.00
  -2  -1  -1  586.64  126.89
  -2  -1  -1  844.02   46.10
   2   1   1  762.72   46.00
   2   1   1 1081.39  197.38
   2   1   1  783.92   44.80
  -3  -1  -1  132.39    4.30
  -3  -1  -1  132.39    4.30
  -3  -1  -1  133.09    4.30
   3   1   1  132.09    4.30
   3   1   1  132.89    4.30
  -4  -1  -1  278.67    7.70
  -4  -1  -1  276.17    7.70
   4   1   1  266.67    7.60
   4   1   1  263.07    7.60
   4   1   1  267.77    7.50
  -5  -1  -1   17.30    2.30
  -5  -1  -1   17.90    2.40
   5   1   1   18.80    2.40
   5   1   1   18.10    2.20
   5   1   1   14.60    2.00
  -6  -1  -1  663.03   16.70
  -6  -1  -1  675.73   16.80
   6   1   1  680.53   16.10
   6   1   1  638.04   16.60
  -7  -1  -1  297.97   10.50
  -7  -1  -1  290.07   10.40
   7   1   1  301.37    9.80
   7   1   1  303.77   10.50
  -8  -1  -1   20.60    3.40
   8   1   1   20.10    2.80
   8   1   1   16.00    2.90
  -9  -1  -1  348.87   13.30
  -9  -1  -1  326.37   12.90
   9   1   1  327.07   12.80
   9   1   1  345.77   11.90
   8  -2  -1  292.87   12.30
   8  -2  -1  309.57   12.20
   8  -2  -1  288.17    9.60
  -8   2   1  290.97   12.40
   7  -2  -1    3.30    1.60
   7  -2  -1    1.10    0.80
   7  -2  -1   -0.40    0.80
  -7   2   1    0.30    0.80
   6  -2  -1  353.06   12.10
   6  -2  -1  379.56   10.00
   6  -2  -1  375.36   12.10
  -6   2   1  356.36   12.20
   5  -2  -1  530.75   12.30
   5  -2  -1  547.05   14.60
   5  -2  -1  526.35   14.70
  -5   2   1  511.95   14.50
   4  -2  -1   69.99    4.00
   4  -2  -1   60.89    2.80
   4  -2  -1   64.59    3.80
  -4   2   1   67.29    3.90
   3  -2  -1  120.09    4.90
   3  -2  -1  112.39    4.70
   3  -2  -1  121.49    3.60
  -3   2   1  125.89    4.90
   2  -2  -1  368.96    9.40
   2  -2  -1  366.86    9.30
   2  -2  -1  399.86    7.80
  -2   2   1  396.26    9.60
   1  -2  -1    6.90    1.10
  -1   2   1    6.00    1.00
   0  -2  -1  372.26   73.19
   0  -2  -1  328.47   20.20
   0  -2  -1  306.37   20.20
   0   2   1  403.56   73.49
   0   2   1  336.77   21.10
   0   2   1  281.97   20.20
  -1  -2  -1  863.31   39.80
  -1  -2  -1  797.72   39.90
  -1  -2  -1  533.35   94.29
   1   2   1  766.92   38.60
   1   2   1  784.22   40.20
  -2  -2  -1   15.80    1.10
  -2  -2  -1   19.20    1.30
   2   2   1   19.20    1.30
   2   2   1   16.00    1.10
  -3  -2  -1   13.70    1.60
  -3  -2  -1   10.70    1.20
  -3  -2  -1   14.40    1.60
   3   2   1   12.70    1.40
  -4  -2  -1  413.66   10.50
  -4  -2  -1  423.16   10.30
  -4  -2  -1  423.56   10.70
   4   2   1  435.56   10.60
   4   2   1  412.76   10.20
  -5  -2  -1  107.09    4.70
  -5  -2  -1  103.39    4.80
  -5  -2  -1  100.39    4.60
   5   2   1   99.79    4.50
   5   2   1  111.49    4.70
  -6  -2  -1  302.97    9.70
  -6  -2  -1  303.77   10.00
   6   2   1  322.07    9.90
   6   2   1  307.07    9.50
  -7  -2  -1  210.58    8.30
  -7  -2  -1  219.38    8.70
   7   2   1  202.78    8.20
   7   2   1  194.28    7.80
  -8  -2  -1  208.58    8.90
   8   2   1  189.98    8.50
   8   2   1  197.98    8.20
  -9  -2  -1   12.60    2.90
  -9  -2  -1   11.10    2.70
   9   2   1   13.80    2.80
   9   2   1    7.60    2.20
   8  -3  -1  105.89    7.40
   8  -3  -1   99.79    6.70
   8  -3  -1   89.79    4.80
  -8   3   1  106.49    7.20
   7  -3  -1  108.59    4.90
   7  -3  -1  116.79    6.80
   7  -3  -1  120.09    7.20
  -7   3   1  110.79    6.80
   6  -3  -1   61.49    4.50
   6  -3  -1   67.59    4.90
   6  -3  -1   63.39    3.40
  -6   3   1   66.89    4.80
   5  -3  -1   48.80    3.70
   5  -3  -1   52.59    2.80
   5  -3  -1   42.80    3.70
  -5   3   1   51.59    3.90
   4  -3  -1  181.58    6.90
   4  -3  -1  182.38    7.10
   4  -3  -1  175.78    5.20
  -4   3   1  173.08    6.90
   3  -3  -1    2.00    0.80
   3  -3  -1    2.60    0.60
   3  -3  -1    2.40    0.90
  -3   3   1    1.50    0.80
   2  -3  -1 2957.90   94.89
   2  -3  -1 2868.41  239.98
  -2   3   1 2792.12   94.09
  -2   3   1 2597.14  241.48
   1  -3  -1  492.95   30.30
   1  -3  -1  519.05   27.60
   1  -3  -1  523.25   29.20
   1  -3  -1  491.55   29.00
  -1   3   1  520.85   96.49
  -1   3   1  632.34  116.69
   0  -3  -1 1599.64  121.29
   0  -3  -1 1792.12   56.39
   0   3   1 1670.43  130.49
   0   3   1 1723.43   56.59
  -1  -3  -1   42.00    1.80
   1   3   1   39.90    1.80
  -2  -3  -1  426.46    9.60
  -2  -3  -1  425.66    8.90
  -3  -3  -1   12.70    1.60
  -3  -3  -1   10.60    1.20
   3   3   1   13.30    1.20
   3   3   1   16.10    1.80
  -4  -3  -1  772.92   16.40
  -4  -3  -1  768.22   17.20
   4   3   1  777.12   16.40
  -5  -3  -1  182.28    6.70
  -5  -3  -1  161.08    5.90
  -5  -3  -1  179.18    6.70
   5   3   1  180.48    6.20
   5   3   1  182.78    6.50
  -6  -3  -1  284.07    9.10
  -6  -3  -1  289.27    9.50
  -6  -3  -1  279.17    9.60
   6   3   1  291.77    9.30
   6   3   1  286.77    9.10
  -7  -3  -1  713.13   17.90
  -7  -3  -1  686.63   18.50
   7   3   1  681.83   17.80
   7   3   1  692.93   17.70
  -8  -3  -1   18.80    3.30
  -8  -3  -1   18.30    2.90
   8   3   1   15.80    2.70
   8   3   1   17.40    3.10
  -9  -3  -1   19.90    3.40
  -9  -3  -1   24.70    4.00
   9   3   1   32.10    4.40
   9   3   1   29.00    3.90
   7  -4  -1   93.59    4.40
   7  -4  -1   84.29    5.80
   7  -4  -1   82.99    6.20
  -7   4   1   75.39    5.70
   6  -4  -1    3.70    1.50
   6  -4  -1    3.20    1.00
   6  -4  -1    2.60    1.50
   5  -4  -1  547.05   12.50
   5  -4  -1  566.34   15.40
   5  -4  -1  547.65   15.90
  -5   4   1  561.94   15.60
   4  -4  -1   33.10    2.90
   4  -4  -1   36.30    2.10
   4  -4  -1   30.70    3.40
  -4   4   1   41.00    3.20
   3  -4  -1  202.38    7.00
   3  -4  -1  196.98    7.20
  -3   4   1  191.48    7.00
   2  -4  -1  171.98    4.40
   2  -4  -1  167.38    6.00
   2  -4  -1  170.28    5.90
  -2   4   1  166.98    5.90
   1  -4  -1 1634.64   52.19
   1  -4  -1 1636.74   53.19
  -1   4   1 1624.14  145.59
  -1   4   1 1516.55  120.39
   0  -4  -1   19.50    1.10
   0  -4  -1   18.50    1.20
   0  -4  -1   19.50    1.70
   0   4   1   19.80    1.30
  -1  -4  -1 1220.78   56.89
  -1  -4  -1 1347.37  205.68
  -1  -4  -1 1161.18   53.39
   1   4   1 1144.89   55.99
   1   4   1 1233.08  157.18
   1   4   1 1226.38   55.89
   2   4   1  622.04   13.50
  -3  -4  -1   65.39    2.70
  -3  -4  -1   71.69    3.40
   3   4   1   69.79    2.80
   3   4   1   63.09    3.20
  -4  -4  -1 1117.19  311.77
  -4  -4  -1 1294.77   90.39
  -4  -4  -1 1284.87   85.39
   4   4   1 1000.90  260.67
   4   4   1 1451.55   91.59
   4   4   1 1374.56   93.19
  -5  -4  -1 1371.96   27.40
  -5  -4  -1 1359.26   28.80
  -6  -4  -1  268.57    9.40
  -6  -4  -1  272.37    8.70
  -6  -4  -1  295.67    9.90
   6   4   1  272.37    9.30
   6   4   1  279.97    8.80
  -7  -4  -1  591.24   15.80
  -7  -4  -1  619.34   17.50
  -7  -4  -1  587.84   16.60
   7   4   1  621.84   16.60
   7   4   1  589.84   15.80
  -8  -4  -1  254.77    9.90
  -8  -4  -1  267.77   10.90
   8   4   1  283.27   10.50
   8   4   1  293.17   10.50
  -9  -4  -1    3.50    1.60
  -9  -4  -1    1.30    1.30
   9   4   1    2.40    1.40
   9   4   1    3.70    1.60
   7  -5  -1  116.69    4.90
   7  -5  -1  132.59    8.00
   7  -5  -1  124.89    7.30
  -7   5   1  120.89    7.30
   6  -5  -1    2.90    1.50
   6  -5  -1    8.80    1.50
   6  -5  -1    7.70    2.10
   5  -5  -1  261.17   10.20
   5  -5  -1  244.38    7.00
   5  -5  -1  251.57    9.50
  -5   5   1  261.97    9.80
   4  -5  -1  566.64   15.70
   4  -5  -1  580.64   12.50
   4  -5  -1  545.75   14.90
  -4   5   1  575.24   15.40
   3  -5  -1  801.62   16.20
   3  -5  -1  818.42   19.30
   3  -5  -1  788.32   18.60
  -3   5   1  819.12   19.10
   2  -5  -1  765.92   17.70
   2  -5  -1  787.32   17.80
   1  -5  -1  645.24   15.00
   0  -5  -1   83.29    3.90
   0  -5  -1   78.29    2.70
   0  -5  -1   75.49    3.00
   0   5   1   83.19    3.10
  -1  -5  -1    0.90    0.50
  -1  -5  -1    0.30    0.20
   1   5   1   -0.10    0.30
  -2  -5  -1  741.13   16.10
   2   5   1  756.62   16.30
  -3  -5  -1    1.10    0.50
  -3  -5  -1    2.30    0.90
   3   5   1    1.70    0.50
   3   5   1    2.20    0.90
  -4  -5  -1  939.81   19.10
  -4  -5  -1  926.11   20.70
   4   5   1  954.10   19.20
   4   5   1  923.81   20.70
  -5  -5  -1  473.05   13.70
  -5  -5  -1  550.54   14.50
  -5  -5  -1  531.25   12.60
   5   5   1  539.35   12.70
   5   5   1  546.95   14.10
  -6  -5  -1  228.78    8.70
  -6  -5  -1  213.08    7.40
  -6  -5  -1  218.98    8.40
   6   5   1  216.38    7.40
   6   5   1  218.78    8.30
  -7  -5  -1  260.67    9.90
  -7  -5  -1  243.08    8.70
   7   5   1  251.97    9.60
   7   5   1  257.47    8.90
  -8  -5  -1   82.59    5.20
  -8  -5  -1   80.89    5.80
  -8  -5  -1   88.69    5.90
   8   5   1   90.59    5.40
   8   5   1   82.29    5.60
  -9  -5  -1   28.00    3.90
  -9  -5  -1   36.60    5.00
   9   5   1   31.80    4.20
   9   5   1   28.20    4.20
   6  -6  -1   61.89    3.20
   6  -6  -1   57.89    5.10
   6  -6  -1   62.69    4.90
  -6   6   1   65.09    5.00
   5  -6  -1   49.80    4.10
   5  -6  -1   49.50    2.70
   5  -6  -1   50.49    4.40
   5  -6  -1   47.20    2.70
  -5   6   1   46.10    4.00
   4  -6  -1  475.85   13.70
   4  -6  -1  463.55   10.90
   4  -6  -1  471.25   14.10
  -4   6   1  469.15   13.80
   3  -6  -1  184.48    7.20
   3  -6  -1  196.18    5.60
   3  -6  -1  181.38    7.40
   2  -6  -1  553.64   14.00
   2  -6  -1  544.35   12.00
   2  -6  -1  537.05   14.00
   1  -6  -1  611.54   13.10
   1  -6  -1  610.14   14.90
   1  -6  -1  589.04   14.20
   1  -6  -1  600.74   13.30
   0  -6  -1   46.50    2.10
   0  -6  -1   42.30    2.90
   0  -6  -1   44.40    2.40
   0   6   1   43.70    2.40
  -1  -6  -1   49.60    1.70
  -1  -6  -1   52.79    2.80
   1   6   1   50.39    2.80
  -2  -6  -1    0.50    0.40
  -2  -6  -1    0.50    0.50
   2   6   1    0.60    0.50
   2   6   1    0.70    0.30
  -3  -6  -1  568.94   12.10
  -3  -6  -1  560.94   13.90
   3   6   1  570.44   14.10
   3   6   1  572.74   11.30
  -4  -6  -1   34.20    2.10
  -4  -6  -1   31.10    2.70
   4   6   1   34.40    2.20
   4   6   1   35.90    2.80
   4   6   1   35.90    2.10
  -5  -6  -1  667.83   17.30
  -5  -6  -1  674.93   17.70
  -5  -6  -1  696.53   15.40
   5   6   1  671.03   17.20
   5   6   1  705.43   15.50
   5   6   1  719.93   15.90
  -6  -6  -1   12.80    2.40
  -6  -6  -1   11.80    1.80
   6   6   1   14.70    2.30
   6   6   1   14.10    2.10
  -7  -6  -1    5.20    1.60
  -7  -6  -1    6.40    1.60
   7   6   1    4.60    1.30
   7   6   1    6.10    1.70
  -8  -6  -1   80.69    5.90
  -8  -6  -1   72.19    4.80
  -8  -6  -1   80.29    5.80
   8   6   1   81.49    5.70
   8   6   1   86.79    5.20
  -9  -6  -1    0.20    1.10
  -9  -6  -1    0.00    0.80
  -9  -6  -1   -0.40    0.90
   9   6   1    0.30    1.10
   9   6   1    0.80    1.00
   9   6   1   -0.70    0.60
   6  -7  -1   87.09    6.00
   6  -7  -1   89.59    3.90
   6  -7  -1   81.69    3.80
   6  -7  -1   85.59    6.10
   6  -7  -1   80.29    6.20
  -6   7   1   89.09    6.10
   5  -7  -1  155.78    8.00
   5  -7  -1  146.39    5.20
   5  -7  -1  138.49    5.00
   5  -7  -1  157.08    7.60
   4  -7  -1  263.87    9.60
   4  -7  -1  252.27    7.20
   4  -7  -1  238.18    9.30
   4  -7  -1  268.47   10.20
   3  -7  -1   69.49    4.50
   3  -7  -1   70.79    3.20
   3  -7  -1   61.59    4.00
   3  -7  -1   73.59    4.50
   2  -7  -1   50.49    3.50
   2  -7  -1   45.80    3.40
   2  -7  -1   46.90    3.00
   2  -7  -1   48.70    2.70
   1  -7  -1   20.60    1.80
   1  -7  -1   19.30    2.50
   1  -7  -1   23.20    2.60
   1  -7  -1   19.20    2.00
   0  -7  -1  471.55   13.00
   0  -7  -1  470.15   11.50
   0  -7  -1  498.15   10.60
  -1  -7  -1    2.00    0.80
  -1  -7  -1    2.90    0.50
   1   7   1    2.20    0.80
  -2  -7  -1 1072.29   22.70
  -2  -7  -1 1061.29   20.80
   2   7   1 1048.40   22.80
  -3  -7  -1   24.10    1.70
  -3  -7  -1   28.20    3.00
   3   7   1   25.50    1.30
   3   7   1   26.80    3.10
  -4  -7  -1  421.96   12.10
  -4  -7  -1  401.36    9.70
   4   7   1  410.36    9.30
   4   7   1  404.16   12.00
  -5  -7  -1  190.58    7.80
  -5  -7  -1  177.38    5.90
   5   7   1  178.28    6.00
   5   7   1  173.58    5.90
   5   7   1  179.48    7.50
  -6  -7  -1   55.89    4.30
  -6  -7  -1   66.19    3.60
   6   7   1   56.49    3.50
   6   7   1   52.59    3.30
  -7  -7  -1    0.00    0.70
  -7  -7  -1    0.20    0.70
  -7  -7  -1    1.90    1.10
   7   7   1    2.00    1.00
   7   7   1    0.70    0.80
   7   7   1    0.00    0.40
  -8  -7  -1   45.10    3.70
  -8  -7  -1   49.30    5.70
  -8  -7  -1   48.60    5.70
   8   7   1   45.60    3.70
   8   7   1   51.99    4.70
   8   7   1   48.70    4.10
  -9  -7  -1  137.29    8.60
  -9  -7  -1  148.59    7.40
  -9  -7  -1  148.29    8.60
   9   7   1  135.49    8.10
   9   7   1  143.99    7.70
   9   7   1  151.58    7.40
   5  -8  -1    2.60    1.50
   5  -8  -1    2.70    1.60
   5  -8  -1    4.80    1.20
   5  -8  -1    2.10    1.20
   5  -8  -1    6.20    1.20
   4  -8  -1   52.79    4.40
   4  -8  -1   43.70    3.80
   4  -8  -1   49.40    4.10
   4  -8  -1   54.39    3.00
   3  -8  -1  272.97    9.90
   3  -8  -1  272.67   10.00
   3  -8  -1  278.77    9.40
   3  -8  -1  271.57    7.80
   2  -8  -1   12.60    1.80
   2  -8  -1    7.20    1.70
   2  -8  -1    9.60    2.00
   2  -8  -1    9.10    1.70
   1  -8  -1   87.59    3.90
   1  -8  -1   91.69    5.10
   1  -8  -1   84.79    4.00
   1  -8  -1   85.39    4.40
   0  -8  -1  217.38    8.20
   0  -8  -1  206.78    7.00
   0  -8  -1  223.88    7.10
   0  -8  -1  222.58    6.00
  -1  -8  -1  275.27    8.50
  -1  -8  -1  269.17    6.20
   1   8   1  270.77    8.40
  -2  -8  -1   25.10    1.80
  -2  -8  -1   21.30    2.60
   2   8   1   29.40    2.60
  -3  -8  -1  749.82   15.60
  -3  -8  -1  743.53   18.30
   3   8   1  743.93   18.50
   3   8   1  779.22   14.20
  -4  -8  -1   82.59    4.80
  -4  -8  -1   75.89    3.30
   4   8   1   79.69    4.80
   4   8   1   80.09    2.90
  -5  -8  -1   30.30    3.70
  -5  -8  -1   28.50    2.10
   5   8   1   30.10    2.10
  -6  -8  -1  385.16   13.10
  -6  -8  -1  385.56   10.40
   6   8   1  402.46   10.80
  -7  -8  -1    4.00    1.80
  -7  -8  -1    3.00    1.20
  -7  -8  -1    6.50    2.00
   7   8   1    3.00    1.20
   7   8   1    3.60    1.70
   7   8   1    4.30    1.30
  -8  -8  -1  208.78    8.20
  -8  -8  -1  197.58   10.10
  -8  -8  -1  199.58    9.90
   8   8   1  218.68   10.20
   8   8   1  225.98    8.40
   8   8   1  215.18    8.60
   4  -9  -1   64.79    4.80
   4  -9  -1   66.09    5.00
   4  -9  -1   61.79    5.00
   4  -9  -1   59.19    3.30
   3  -9  -1    8.10    1.90
   3  -9  -1    9.60    2.30
   3  -9  -1    7.50    1.40
   3  -9  -1   13.00    2.60
   2  -9  -1  252.77    9.70
   2  -9  -1  248.68    9.10
   2  -9  -1  261.17    8.60
   2  -9  -1  257.37    7.90
   1  -9  -1   81.09    5.10
   1  -9  -1   84.09    4.10
   1  -9  -1   78.59    3.80
   1  -9  -1   69.99    4.20
   0  -9  -1  829.92   17.10
   0  -9  -1  821.42   18.60
   0  -9  -1  834.92   20.80
   0  -9  -1  823.82   18.90
  -1  -9  -1   67.39    4.00
  -1  -9  -1   68.89    2.50
   1   9   1   69.69    4.10
  -2  -9  -1  332.87    8.60
  -2  -9  -1  346.47   10.70
   2   9   1  336.07   10.70
  -3  -9  -1  146.29    4.70
  -3  -9  -1  144.89    6.60
   3   9   1  135.79    6.50
  -4  -9  -1  158.88    7.30
  -4  -9  -1  162.28    5.10
   4   9   1  159.88    4.20
  -5  -9  -1   62.99    3.10
  -5  -9  -1   63.29    4.70
   5   9   1   59.29    2.70
  -6  -9  -1   78.59    3.80
  -6  -9  -1   67.89    5.30
  -6  -9  -1   75.99    5.50
   6   9   1   69.09    5.20
   6   9   1   72.39    3.70
  -7  -9  -1  152.18    6.10
  -7  -9  -1  157.08    8.60
  -7  -9  -1  161.08    8.50
   7   9   1  153.58    8.30
   7   9   1  151.18    6.30
  -8  -9  -1  129.79    6.00
  -8  -9  -1  122.69    7.90
  -8  -9  -1  114.99    7.60
   8   9   1  119.29    7.60
   8   9   1  121.59    6.10
   8   9   1  116.59    5.80
   3 -10  -1  345.67   12.20
   3 -10  -1  330.97   11.20
   3 -10  -1  339.67    9.70
   3 -10  -1  342.07   12.30
   2 -10  -1   15.30    2.60
   2 -10  -1   16.40    3.00
   2 -10  -1   17.90    2.60
   2 -10  -1   13.40    2.10
   1 -10  -1  181.18    8.30
   1 -10  -1  178.08    6.20
   1 -10  -1  180.68    7.30
   1 -10  -1  194.58    7.10
   0 -10  -1   94.69    4.70
   0 -10  -1   95.29    3.70
   0 -10  -1   98.89    5.00
   0 -10  -1   95.49    5.80
  -1 -10  -1  803.42   18.00
  -1 -10  -1  817.02   15.90
  -1 -10  -1  815.82   19.60
  -1 -10  -1  821.22   21.30
  -2 -10  -1  140.79    6.60
  -2 -10  -1  147.89    5.00
   2  10   1  147.49    6.80
  -3 -10  -1  315.47    7.90
  -3 -10  -1  294.77   10.60
  -4 -10  -1   26.80    3.60
  -4 -10  -1   31.20    2.00
   4  10   1   18.40    3.00
  -5 -10  -1  122.29    4.40
  -5 -10  -1  119.09    6.80
   5  10   1  138.89    7.40
   5  10   1  123.39    3.80
  -6 -10  -1   19.10    3.30
  -6 -10  -1   20.80    2.20
  -6 -10  -1   27.40    4.30
   6  10   1   18.80    1.70
   6  10   1   20.40    3.40
  -7 -10  -1  266.07   12.10
  -7 -10  -1  285.97    8.60
  -7 -10  -1  299.77   12.30
   7  10   1  268.67    8.60
   7  10   1  288.87   12.10
   1 -11  -1  102.29    5.20
   1 -11  -1  107.19    5.60
   1 -11  -1  106.49    4.70
   1 -11  -1  113.29    6.80
   0 -11  -1  146.29    6.10
   0 -11  -1  137.09    6.30
   0 -11  -1  146.39    7.70
   0 -11  -1  136.49    4.70
  -1 -11  -1   30.00    4.30
  -1 -11  -1   29.70    2.50
  -1 -11  -1   26.50    1.40
  -1 -11  -1   28.40    3.50
  -2 -11  -1   94.69    3.90
  -2 -11  -1   98.19    5.60
  -2 -11  -1   92.49    4.00
  -3 -11  -1   60.79    2.80
  -3 -11  -1   64.59    4.70
   3  11   1   62.39    4.80
  -4 -11  -1  256.77    6.80
  -4 -11  -1  282.67   10.90
   4  11   1  274.97   11.00
  -5 -11  -1    1.10    0.60
  -5 -11  -1    1.90    1.30
   5  11   1    2.20    1.40
  -6 -11  -1  239.78    6.80
  -6 -11  -1  241.68   11.30
  -6 -11  -1  254.77   11.30
   6  11   1  246.18    6.20
   6  11   1  246.38   11.00
  -1 -12  -1   51.59    3.20
  -1 -12  -1   51.59    4.20
  -1 -12  -1   39.70    4.80
  -1 -12  -1   48.80    3.20
  -2 -12  -1   58.59    3.20
  -2 -12  -1   63.79    4.80
  -2 -12  -1   63.59    3.20
   2  12   1   58.99    4.60
  -3 -12  -1    5.10    0.90
  -3 -12  -1    6.50    2.10
  -3 -12  -1    5.20    1.00
   3  12   1    3.60    1.50
  -4 -12  -1  101.49    3.30
  -4 -12  -1  100.19    6.50
  -4 -12  -1   99.09    3.20
   4  12   1  103.49    6.70
   4  11  -2  162.58    6.60
   4  11  -2  160.58    8.90
  -4 -11   2  168.28    8.70
  -4 -11   2  172.58    9.10
   3  11  -2  140.69    5.80
   3  11  -2  132.09    7.80
  -3 -11   2  138.49    7.50
  -3 -11   2  139.59    7.90
   2  11  -2   25.30    2.80
  -2 -11   2   27.70    3.10
  -2 -11   2   25.50    3.80
  -1 -11   2  437.66   12.00
  -1 -11   2  420.56   14.30
   0 -11   2   68.49    4.80
   0 -11   2   67.69    5.00
   0 -11   2   59.09    3.90
   1 -11   2  314.87    8.30
   1 -11   2  326.67   10.50
   1 -11   2  320.87   11.80
   1 -11   2  325.17   11.20
   5  10  -2   94.79    5.10
   5  10  -2   87.59    6.40
  -5 -10   2   87.29    6.40
  -5 -10   2   91.79    6.40
   4  10  -2   44.40    5.30
   4  10  -2   53.29    3.60
  -4 -10   2   49.99    4.50
  -4 -10   2   55.99    5.90
   3  10  -2   65.69    3.80
   3  10  -2   66.39    5.20
  -3 -10   2   62.09    5.00
  -3 -10   2   53.79    4.50
   2  10  -2  158.18    8.00
   2  10  -2  169.48    6.40
  -2 -10   2  173.08    6.60
  -2 -10   2  178.68    8.40
  -1 -10   2   15.30    2.80
  -1 -10   2   17.90    2.40
   0 -10   2  193.58    8.40
   0 -10   2  186.08    4.40
   0 -10   2  189.88    7.00
   0 -10   2  188.28    4.40
   0 -10   2  183.38    7.80
   1 -10   2   26.30    2.00
   1 -10   2   26.70    3.60
   1 -10   2   20.50    2.70
   1 -10   2   32.50    3.70
   2 -10   2  293.97   10.10
   2 -10   2  285.17   10.60
   2 -10   2  299.07    8.90
   2 -10   2  296.07    9.90
   3 -10   2    7.40    1.90
   3 -10   2   11.60    2.20
   3 -10   2    7.80    2.00
   3 -10   2   10.60    2.20
   6   9  -2  348.47   12.00
   6   9  -2  348.67   13.40
  -6  -9   2  349.87   13.60
  -6  -9   2  354.46   13.60
   5   9  -2   17.00    2.60
   5   9  -2   13.60    2.70
  -5  -9   2   19.00    3.50
  -5  -9   2   20.30    3.40
   4   9  -2  182.38    8.80
   4   9  -2  197.78    7.30
  -4  -9   2  193.08    8.70
  -4  -9   2  204.98    9.20
   3   9  -2  145.59    7.50
   3   9  -2  154.68    6.00
  -3  -9   2  140.19    7.00
  -3  -9   2  160.88    7.70
   2   9  -2    0.70    0.80
   2   9  -2    2.70    0.90
  -2  -9   2    1.20    1.00
  -2  -9   2    2.10    1.00
   1   9  -2  166.78    6.10
  -1  -9   2  160.88    7.40
  -1  -9   2  153.68    6.00
   0  -9   2  372.76   10.50
   0  -9   2  370.66   12.00
   0  -9   2  373.46    7.80
   1  -9   2   24.00    2.90
   1  -9   2   30.00    3.20
   1  -9   2   22.50    1.80
   1  -9   2   30.00    3.70
   2  -9   2   37.20    4.00
   2  -9   2   37.80    2.70
   2  -9   2   35.40    2.90
   2  -9   2   37.10    3.10
   3  -9   2  142.69    6.20
   3  -9   2  140.59    6.70
   3  -9   2  135.99    6.60
   3  -9   2  133.79    5.90
   4  -9   2  119.89    6.30
   4  -9   2  133.59    6.00
   4  -9   2  129.59    6.40
   4  -9   2  128.49    6.90
   7   8  -2   15.50    2.90
   7   8  -2   14.80    2.00
   7   8  -2   16.80    3.50
  -7  -8   2   14.20    3.10
  -7  -8   2   21.30    3.70
   6   8  -2   23.30    3.60
   6   8  -2   32.00    3.80
   6   8  -2   28.50    2.00
  -6  -8   2   25.60    4.00
  -6  -8   2   31.40    4.40
   5   8  -2   29.20    3.40
  -5  -8   2   24.50    3.60
  -5  -8   2   28.70    4.00
   4   8  -2  405.16   11.50
  -4  -8   2  395.96   12.90
  -4  -8   2  414.56   13.40
   3   8  -2   92.79    4.50
  -3  -8   2   92.39    5.30
  -3  -8   2  101.89    5.80
   2   8  -2  219.18    8.70
   2   8  -2  234.88    7.30
  -2  -8   2  225.38    8.80
  -2  -8   2  223.78    7.40
   1   8  -2    0.40    0.70
   1   8  -2    0.70    0.60
  -1  -8   2    2.00    1.00
  -1  -8   2    1.60    0.80
   0   8  -2  275.77    8.40
   0  -8   2  261.87    9.30
   0  -8   2  262.07    6.00
   0  -8   2  277.97    8.30
   1  -8   2   13.80    1.60
   1  -8   2   11.10    2.10
   1  -8   2   13.90    2.10
   1  -8   2   14.90    2.10
   2  -8   2  185.08    7.10
   2  -8   2  171.48    6.10
   2  -8   2  169.88    7.10
   2  -8   2  185.78    6.60
   3  -8   2   24.30    3.10
   3  -8   2   23.20    2.90
   3  -8   2   25.60    2.90
   3  -8   2   24.00    2.30
   4  -8   2   65.79    4.40
   4  -8   2   65.79    4.70
   4  -8   2   55.39    3.60
   4  -8   2   64.79    4.30
   5  -8   2  101.59    5.20
   5  -8   2  110.39    6.30
   5  -8   2  110.99    6.60
   5  -8   2  102.39    5.60
   7   7  -2    9.50    1.80
   7   7  -2    5.60    2.00
   7   7  -2    8.40    2.30
  -7  -7   2    5.30    1.90
  -7  -7   2    6.50    2.30
   6   7  -2  142.59    6.90
   6   7  -2  145.59    7.60
   6   7  -2  139.49    5.20
  -6  -7   2  141.69    7.50
  -6  -7   2  145.29    7.80
   5   7  -2  358.16    8.60
   5   7  -2  380.96   11.50
  -5  -7   2  370.86   12.50
  -5  -7   2  347.67   12.20
   4   7  -2    4.10    1.30
  -4  -7   2    5.10    1.60
  -4  -7   2    5.20    1.60
   3   7  -2  346.17   11.30
   3   7  -2  359.06   10.00
  -3  -7   2  344.07   10.90
  -3  -7   2  361.26   11.40
   2   7  -2   41.90    2.70
   2   7  -2   46.10    3.50
  -2  -7   2   43.00    3.40
  -2  -7   2   39.20    2.70
   1   7  -2  101.99    5.10
   1   7  -2   99.79    4.30
  -1  -7   2  104.89    5.20
  -1  -7   2   98.89    4.20
   0   7  -2   15.80    2.00
   0  -7   2   12.10    0.90
   0  -7   2   12.20    1.80
   0  -7   2   20.90    2.80
   1  -7   2  474.25   11.90
   1  -7   2  466.15   10.50
   1  -7   2  473.85   12.10
   1  -7   2  458.15   12.70
   2  -7   2  724.53   16.10
   2  -7   2  734.73   17.40
   2  -7   2  714.43   17.20
   2  -7   2  716.93   16.30
   3  -7   2  621.34   15.20
   3  -7   2  609.74   16.00
   3  -7   2  631.84   15.70
   3  -7   2  604.94   14.50
   4  -7   2  252.97    8.00
   4  -7   2  239.98    8.70
   4  -7   2  243.38    9.30
   4  -7   2  234.68    8.40
   5  -7   2   91.09    5.80
   5  -7   2   94.89    5.60
   5  -7   2   96.09    5.20
   5  -7   2   91.79    4.70
   6  -7   2   21.40    2.90
   6  -7   2   24.30    3.80
   6  -7   2   25.10    3.80
   6  -7   2   20.20    3.00
   8   6  -2   25.30    4.00
   8   6  -2   25.30    4.20
   8   6  -2   26.60    3.50
  -8  -6   2   26.40    4.20
  -8  -6   2   20.20    3.80
   7   6  -2  154.28    6.50
   7   6  -2  153.98    8.00
   7   6  -2  145.69    7.60
  -7  -6   2  160.08    8.60
  -7  -6   2  160.48    8.20
   6   6  -2  255.67   10.20
   6   6  -2  268.07    8.10
   6   6  -2  249.97    9.70
  -6  -6   2  270.07   10.80
  -6  -6   2  262.87   10.30
   5   6  -2  823.12   19.80
   5   6  -2  802.12   17.00
   5   6  -2  800.02   20.60
  -5  -6   2  813.12   20.50
  -5  -6   2  793.92   20.70
   4   6  -2  193.38    7.20
   4   6  -2  194.68    5.10
   4   6  -2  188.78    7.80
  -4  -6   2  212.68    8.10
  -4  -6   2  198.08    7.90
   3   6  -2  188.88    6.50
   3   6  -2  182.88    7.30
  -3  -6   2  183.38    7.10
  -3  -6   2  177.38    7.20
   2   6  -2  175.18    6.80
   2   6  -2  161.18    5.70
  -2  -6   2  164.28    5.80
  -2  -6   2  166.88    6.30
  -2  -6   2  166.98    6.60
   1   6  -2    4.40    1.20
   1   6  -2    6.70    1.30
  -1  -6   2    3.30    1.00
  -1  -6   2    5.00    1.10
   0   6  -2  459.55   11.20
   0  -6   2  444.76    8.80
   0  -6   2  450.25   11.00
   0  -6   2  443.96   11.90
  -1   6  -2   58.59    3.30
   1  -6   2   54.29    3.10
   1  -6   2   49.70    3.20
   1  -6   2   51.59    2.40
   2  -6   2  348.27   10.00
   2  -6   2  351.06   10.10
   2  -6   2  367.56    9.30
   2  -6   2  359.66    9.10
   3  -6   2  192.98    6.20
   3  -6   2  203.98    7.10
   3  -6   2  196.78    6.90
   3  -6   2  191.98    7.30
   4  -6   2  508.75   13.70
   4  -6   2  497.35   14.20
   4  -6   2  499.35   13.20
   4  -6   2  489.05   12.30
   5  -6   2   94.49    5.70
   5  -6   2   97.99    5.60
   5  -6   2   93.99    4.60
   6  -6   2  114.99    6.90
   6  -6   2  122.19    5.70
   6  -6   2  125.69    6.90
   7  -6   2   71.99    5.80
   7  -6   2   68.89    4.50
   7  -6   2   76.09    4.90
   7  -6   2   68.69    5.50
   8   5  -2  478.65   16.00
   8   5  -2  521.55   15.20
   8   5  -2  524.35   17.10
  -8  -5   2  524.15   16.70
  -8  -5   2  496.85   17.50
   7   5  -2  215.08    8.10
   7   5  -2  209.28    9.10
   7   5  -2  203.58    9.20
  -7  -5   2  200.58    9.00
  -7  -5   2  213.88   10.00
   6   5  -2  297.37    9.10
   6   5  -2  297.27   10.70
   6   5  -2  291.47   10.60
  -6  -5   2  316.37   11.00
   5   5  -2  492.45   13.90
   5   5  -2  498.75   14.30
   5   5  -2  499.05   12.00
  -5  -5   2  478.45   14.00
  -5  -5   2  526.95   15.00
   4   5  -2  759.62   18.60
   4   5  -2  775.72   15.60
   4   5  -2  764.72   18.10
  -4  -5   2  739.33   18.50
  -4  -5   2  737.03   18.30
   3   5  -2   51.09    1.90
   3   5  -2   54.59    3.50
   3   5  -2   45.20    2.90
  -3  -5   2   44.30    3.20
  -3  -5   2   45.20    3.20
   2   5  -2 1566.44   93.99
   2   5  -2 1529.05  336.47
   2   5  -2 1488.45   87.99
  -2  -5   2 1488.95   87.59
  -2  -5   2 1587.24   94.29
  -2  -5   2 1081.49  244.98
   1   5  -2  508.75   11.80
   1   5  -2  500.55   12.70
  -1  -5   2  511.25   12.80
  -1  -5   2  518.55   11.80
   0   5  -2   11.10    1.50
   0  -5   2   10.10    1.60
   0  -5   2   10.10    1.40
   0  -5   2   10.70    0.70
  -1   5  -2 1799.42   62.69
  -1   5  -2 1786.72   60.59
  -1   5  -2 1744.23   60.29
  -1   5  -2 1812.62   58.89
   1  -5   2 1681.53  142.49
   1  -5   2 1664.83  173.38
   2  -5   2    0.20    0.40
   2  -5   2    0.10    0.30
   2  -5   2    0.20    0.30
   2  -5   2    0.20    0.40
   3  -5   2  257.97    7.90
   3  -5   2  263.57    8.50
   3  -5   2  264.57    7.10
   4  -5   2  107.79    4.40
   4  -5   2  114.59    5.60
   4  -5   2  105.79    5.10
  -5   5  -2  225.98    7.50
   5  -5   2  238.58    9.10
   5  -5   2  230.38    7.50
   5  -5   2  239.38    8.80
  -6   5  -2   25.20    3.00
   6  -5   2   20.60    3.50
   6  -5   2   18.20    3.10
   6  -5   2   21.00    2.70
  -7   5  -2  228.08    8.50
   7  -5   2  215.08    9.70
   7  -5   2  203.08    8.10
   7  -5   2  217.88    8.50
   7  -5   2  209.88   10.00
   8   4  -2   39.00    4.60
   8   4  -2   31.30    4.70
   8   4  -2   28.70    3.80
  -8  -4   2   33.00    4.80
  -8  -4   2   36.20    4.60
   7   4  -2  293.87   10.20
   7   4  -2  307.37   11.80
   7   4  -2  300.07   10.90
  -7  -4   2  295.47   11.00
  -7  -4   2  298.97   11.90
   6   4  -2   40.90    3.80
   6   4  -2   38.70    3.40
   6   4  -2   52.69    3.50
  -6  -4   2   47.60    3.80
   5   4  -2  302.37    9.80
   5   4  -2  299.07    8.50
   5   4  -2  264.87    9.50
  -5  -4   2  282.37    9.50
  -5  -4   2  273.27   10.00
   4   4  -2   20.90    2.40
   4   4  -2   27.70    3.10
   4   4  -2   25.20    1.80
  -4  -4   2   28.10    2.70
  -4  -4   2   21.30    2.50
   3   4  -2   13.30    1.90
   3   4  -2    9.20    1.60
   3   4  -2   10.00    1.10
  -3  -4   2   14.70    2.20
  -3  -4   2   11.20    1.80
   2   4  -2  634.04   14.70
   2   4  -2  641.04   14.20
   2   4  -2  628.84   11.60
  -2  -4   2  628.54   14.30
  -2  -4   2  626.34   14.40
  -2  -4   2  600.14   14.50
   1   4  -2   97.89    3.70
   1   4  -2   82.99    3.80
  -1  -4   2   91.09    4.00
  -1  -4   2   87.19    3.50
  -1  -4   2   90.39    3.60
   0   4  -2  817.92   46.50
   0   4  -2  860.11   50.19
   0   4  -2 1219.18  216.98
   0  -4   2  674.13  174.18
   0  -4   2  859.41   48.30
   0  -4   2  831.22   50.59
  -1   4  -2   10.70    1.50
  -1   4  -2    8.50    1.00
   1  -4   2    7.70    1.20
   1  -4   2   10.20    1.10
   1  -4   2   10.20    1.50
  -2   4  -2  944.01   40.10
  -2   4  -2  972.90   38.80
   2  -4   2  920.01  119.49
  -3   4  -2   41.10    2.70
   3  -4   2   31.90    1.90
   3  -4   2   38.80    2.80
   3  -4   2   36.60    2.50
  -4   4  -2  419.86   11.80
  -4   4  -2  430.36   10.40
   4  -4   2  428.76   10.30
   4  -4   2  427.56   11.60
   4  -4   2  422.86   12.00
  -5   4  -2    0.90    0.70
  -5   4  -2    0.60    0.80
   5  -4   2    1.30    0.70
   5  -4   2    1.40    1.00
   5  -4   2    1.40    0.90
  -6   4  -2    4.40    1.30
   6  -4   2    3.90    1.50
   6  -4   2    2.20    1.00
   6  -4   2    0.90    1.00
  -7   4  -2  133.69    6.30
   7  -4   2  143.79    6.50
   7  -4   2  150.38    6.70
   7  -4   2  140.09    7.50
   7  -4   2  134.09    7.60
  -8   4  -2   49.99    5.70
   8  -4   2   55.79    4.20
   8  -4   2   47.60    5.60
   8  -4   2   57.89    4.30
   8  -4   2   43.20    5.30
   8   3  -2  271.37   10.60
   8   3  -2  260.87   11.90
   8   3  -2  283.57   10.90
  -8  -3   2  278.87   11.00
  -8  -3   2  294.77   12.40
   7   3  -2   77.39    5.00
   7   3  -2   73.59    4.80
   7   3  -2   77.79    5.70
  -7  -3   2   85.79    5.30
  -7  -3   2   71.79    5.50
   6   3  -2   31.70    2.80
   6   3  -2   21.50    3.00
   6   3  -2   24.80    3.00
  -6  -3   2   28.80    3.40
   5   3  -2    7.70    1.60
   5   3  -2    5.00    1.60
   5   3  -2    3.70    1.20
   5   3  -2    7.20    1.70
  -5  -3   2    6.70    1.70
  -5  -3   2   10.30    2.00
   4   3  -2  543.65   13.70
   4   3  -2  548.25   14.20
   4   3  -2  549.05   12.70
   4   3  -2  549.45   14.50
  -4  -3   2  536.05   13.60
  -4  -3   2  531.55   14.20
   3   3  -2    5.80    1.00
   3   3  -2    2.60    0.80
   3   3  -2    6.20    1.40
  -3  -3   2    5.20    1.20
  -3  -3   2    6.20    1.30
   2   3  -2    0.10    0.40
   2   3  -2    0.00    0.30
   2   3  -2    0.20    0.30
  -2  -3   2    0.50    0.50
  -2  -3   2   -0.60    0.20
  -2  -3   2    0.50    0.50
   1   3  -2 1378.96   74.49
   1   3  -2 1485.55   73.19
  -1  -3   2 1064.69  223.68
  -1  -3   2 1461.15   76.19
  -1  -3   2 1594.44   75.99
   0  -3   2  514.15    9.30
   0  -3   2  509.75   11.10
  -1   3  -2  337.47    7.30
  -1   3  -2  341.17    8.30
   1  -3   2  333.27    8.20
   1  -3   2  335.67    8.30
   1  -3   2  321.37    7.10
  -2   3  -2    4.60    0.90
   2  -3   2    3.90    0.90
   2  -3   2    4.20    0.60
   2  -3   2    4.00    0.90
  -3   3  -2   11.60    1.30
  -3   3  -2   11.80    1.60
   3  -3   2   12.00    1.10
   3  -3   2    8.50    1.40
   3  -3   2    7.70    1.40
  -4   3  -2  208.28    7.10
  -4   3  -2  201.18    5.90
   4  -3   2  206.48    5.90
   4  -3   2  193.58    7.20
   4  -3   2  191.48    6.80
  -5   3  -2  740.13   16.40
  -5   3  -2  697.93   17.80
   5  -3   2  732.23   18.40
   5  -3   2  748.63   18.00
   5  -3   2  718.63   16.20
  -6   3  -2  593.34   16.40
  -6   3  -2  581.24   14.70
   6  -3   2  577.04   14.50
   6  -3   2  587.64   16.20
   6  -3   2  585.44   16.60
   6  -3   2  590.24   15.00
  -7   3  -2   19.30    3.30
  -7   3  -2   21.40    3.00
   7  -3   2   18.30    2.70
   7  -3   2   21.40    3.00
   7  -3   2   18.10    3.00
  -8   3  -2  247.38   11.10
  -8   3  -2  266.37   10.00
   8  -3   2  275.37   11.50
   8  -3   2  264.27    9.90
   8  -3   2  258.67   11.40
   8  -3   2  264.67    9.80
   8   2  -2   29.80    4.00
   8   2  -2   27.40    3.40
   8   2  -2   26.20    4.10
  -8  -2   2   22.90    3.80
   7   2  -2  354.96   11.40
   7   2  -2  358.96   13.10
   7   2  -2  366.86   12.10
   7   2  -2  355.66   13.20
  -7  -2   2  357.06   11.70
  -7  -2   2  349.67   13.00
   6   2  -2   68.99    4.20
   6   2  -2   64.79    4.30
   6   2  -2   72.49    5.10
  -6  -2   2   78.89    4.60
   5   2  -2   20.70    2.60
   5   2  -2   17.80    2.60
   5   2  -2   24.80    3.30
   5   2  -2   19.30    2.40
  -5  -2   2   26.90    3.50
  -5  -2   2   25.10    2.90
   4   2  -2  590.74   13.90
   4   2  -2  600.24   14.20
   4   2  -2  612.44   15.40
   4   2  -2  605.44   15.40
  -4  -2   2  589.24   14.20
  -4  -2   2  583.84   15.10
   3   2  -2   94.49    4.00
   3   2  -2   96.19    4.40
   3   2  -2   99.99    3.80
   3   2  -2   93.89    4.40
  -3  -2   2  100.29    4.10
  -3  -2   2  101.39    4.50
   2   2  -2 1207.08   77.79
   2   2  -2 1576.84  317.47
   2   2  -2 1330.27   76.39
  -2  -2   2 1487.55   80.39
  -2  -2   2 1274.57   77.99
   1   2  -2  448.96   10.10
   1   2  -2  450.85   10.10
  -1  -2   2  463.45   10.00
  -1  -2   2  427.86   10.00
   0   2  -2  571.54  138.99
   0   2  -2  568.74   38.70
   0   2  -2  572.64   36.70
   0  -2   2  673.53  154.08
   0  -2   2  544.25   38.30
   0  -2   2  564.24   36.80
  -1   2  -2    7.50    0.80
  -1   2  -2    5.70    0.90
   1  -2   2    4.80    0.80
   1  -2   2    5.90    0.70
  -2   2  -2  381.36    8.70
   2  -2   2  377.56    9.20
   2  -2   2  373.66    8.60
  -3   2  -2    2.20    0.80
  -3   2  -2    1.10    0.40
   3  -2   2    2.50    0.60
   3  -2   2    1.60    0.70
   3  -2   2    1.80    0.70
  -4   2  -2   16.60    1.40
  -4   2  -2   17.40    2.20
   4  -2   2   12.30    1.50
   4  -2   2   17.10    2.40
   4  -2   2   12.50    1.80
  -5   2  -2  628.64   14.50
  -5   2  -2  614.14   15.80
   5  -2   2  649.24   16.00
   5  -2   2  635.04   14.40
  -6   2  -2   33.00    3.90
  -6   2  -2   29.30    2.50
   6  -2   2   30.10    3.50
   6  -2   2   34.80    2.80
   6  -2   2   26.70    2.40
  -7   2  -2  380.36   11.60
   7  -2   2  367.96   11.40
   7  -2   2  376.96   11.40
   7  -2   2  393.46   12.90
  -8   2  -2   92.59    5.60
  -8   2  -2   96.59    6.40
   8  -2   2   93.39    6.30
   8  -2   2   99.19    5.50
   8  -2   2   84.89    5.30
  -9   2  -2   82.59    5.80
  -9   2  -2   70.89    6.10
   9  -2   2   88.19    6.60
   9  -2   2   79.89    5.30
   8   1  -2   57.29    4.20
   8   1  -2   63.09    5.50
   8   1  -2   52.99    4.80
  -8  -1   2   54.39    6.10
   7   1  -2  112.29    6.80
   7   1  -2  107.59    6.20
   7   1  -2   99.09    5.30
  -7  -1   2   99.19    6.50
   6   1  -2  236.98    9.50
   6   1  -2  244.78    9.00
   6   1  -2  236.78    8.00
  -6  -1   2  232.48   10.00
  -6  -1   2  224.58    8.10
   5   1  -2  109.79    4.70
   5   1  -2  102.29    5.10
   5   1  -2  111.19    5.80
  -5  -1   2  112.69    5.80
  -5  -1   2  104.79    4.80
   4   1  -2  726.13   17.60
   4   1  -2  737.53   16.10
   4   1  -2  711.33   16.60
  -4  -1   2  731.93   16.20
  -4  -1   2  736.13   17.70
   3   1  -2 3494.95  146.49
   3   1  -2 3642.14  153.28
   3   1  -2 3852.71  457.25
  -3  -1   2 4433.16  467.05
  -3  -1   2 3723.33  153.18
   2   1  -2   30.50    2.10
   2   1  -2   32.10    2.20
   2   1  -2   28.00    1.70
  -2  -1   2   27.90    1.70
  -2  -1   2   27.30    2.00
   1   1  -2 3128.49  111.69
   1   1  -2 3445.66  291.37
  -1  -1   2 3270.77  114.49
  -1  -1   2 2611.94  272.57
   0   1  -2  459.25   33.30
   0   1  -2  456.85   31.60
   0  -1   2  331.17   90.99
  -1   1  -2 1095.09   50.59
  -1   1  -2 1032.40  119.09
  -1   1  -2 1168.68   50.59
   1  -1   2  987.10   50.09
   1  -1   2 1002.10  119.09
   1  -1   2 1109.39   51.19
  -2   1  -2  229.98    5.90
  -2   1  -2  245.18    4.80
   2  -1   2  237.58    5.90
   2  -1   2  237.58    6.30
  -3   1  -2 2617.44  255.67
  -3   1  -2 3538.05  118.29
   3  -1   2 3541.95  300.77
   3  -1   2 3333.17  118.19
  -4   1  -2  244.88    6.70
  -4   1  -2  250.37    7.60
   4  -1   2  256.47    6.70
   4  -1   2  238.58    7.40
  -6   1  -2  159.18    6.20
  -6   1  -2  159.58    6.90
   6  -1   2  166.28    6.40
   6  -1   2  161.98    6.90
   6  -1   2  143.29    5.90
  -7   1  -2    3.10    1.20
   7  -1   2    2.00    1.00
   7  -1   2    1.60    0.90
   7  -1   2    0.30    0.80
  -8   1  -2   31.20    4.00
  -8   1  -2   27.10    3.90
   8  -1   2   27.50    4.10
   8  -1   2   28.60    3.40
  -9   1  -2   96.49    6.80
  -9   1  -2   93.59    6.20
   9  -1   2  101.39    6.00
   9  -1   2  105.99    7.00
   8   0  -2   30.40    4.20
   8   0  -2   25.70    4.30
   8   0  -2   25.10    3.20
  -8   0   2   24.50    4.10
   7   0  -2   35.00    4.30
   7   0  -2   21.60    3.40
   7   0  -2   22.30    2.90
  -7   0   2   28.20    4.30
   6   0  -2  166.98    7.60
   6   0  -2  182.28    6.70
   6   0  -2  186.48    8.30
  -6   0   2  217.88   11.00
   5   0  -2  120.09    5.70
   5   0  -2  121.39    4.80
   5   0  -2  120.49    6.00
  -5   0   2  114.39    4.80
  -5   0   2  117.59    6.00
   4   0  -2  384.26    9.50
   4   0  -2  382.16   10.70
   4   0  -2  375.56   11.10
  -4   0   2  394.86    9.70
  -4   0   2  377.76   11.30
   3   0  -2  703.73   16.20
   3   0  -2  690.33   15.60
   3   0  -2  713.43   14.50
  -3   0   2  679.43   16.20
  -3   0   2  722.73   14.70
   2   0  -2  478.85   11.50
   2   0  -2  487.85   11.10
   2   0  -2  493.45   10.30
  -2   0   2  499.75   10.30
  -2   0   2  489.85   11.60
   1   0  -2   90.89    2.60
   1   0  -2   89.59    3.40
  -1   0   2   87.39    3.30
  -1   0   2   86.89    2.60
   0   0  -2 1100.89   55.19
   0   0  -2 1082.39   56.99
   0   0   2 1090.39  132.59
  -1   0  -2   49.30    1.50
  -1   0  -2   50.89    2.00
  -1   0  -2   50.89    1.90
   1   0   2   49.70    1.90
   1   0   2   49.40    1.90
  -2   0  -2  759.22   47.10
  -2   0  -2  736.03   44.90
   2   0   2  910.01   50.59
   2   0   2 1102.99  189.78
   2   0   2  911.21   49.00
  -3   0  -2   94.29    3.10
  -3   0  -2   87.29    3.50
   3   0   2   91.59    3.50
  -4   0  -2 1757.82  327.27
  -4   0  -2  925.81   64.99
  -4   0  -2  981.00   71.79
   4   0   2  851.51   61.79
   4   0   2  824.52   64.79
  -5   0  -2  206.78    6.70
  -5   0  -2  215.38    7.30
   5   0   2  203.88    7.20
   5   0   2  215.78    6.90
  -6   0  -2  812.52   19.10
  -6   0  -2  843.82   20.00
   6   0   2  838.42   19.00
   6   0   2  810.22   19.70
  -7   0  -2    0.30    0.70
   7   0   2   -0.80    0.40
   7   0   2   -0.30    0.50
  -8   0  -2  109.39    6.20
   8   0   2  109.59    6.50
   8   0   2  106.29    5.80
  -9   0  -2   80.49    6.10
  -9   0  -2   82.09    5.80
   9   0   2   92.69    6.40
   9   0   2   79.29    5.30
   8  -1  -2   71.29    4.40
   8  -1  -2   60.59    5.40
   8  -1  -2   64.09    5.60
  -8   1   2   66.59    5.80
   7  -1  -2   15.80    2.90
   7  -1  -2   25.30    2.80
   7  -1  -2   28.60    4.30
  -7   1   2   18.20    3.20
   6  -1  -2  646.64   15.20
   6  -1  -2  624.54   17.60
   6  -1  -2  660.43   18.10
   5  -1  -2   60.99    4.30
   5  -1  -2   60.49    4.20
   5  -1  -2   66.19    3.20
  -5   1   2   59.09    4.30
   4  -1  -2  308.77    7.80
   4  -1  -2  303.97    9.50
   4  -1  -2  316.57    9.90
  -4   1   2  305.27    9.90
   3  -1  -2  824.22   18.30
   3  -1  -2  845.12   18.70
  -3   1   2  839.82   16.40
  -3   1   2  816.32   18.70
   2  -1  -2  116.19    4.50
   2  -1  -2  116.79    3.10
   2  -1  -2  115.49    4.30
  -2   1   2  116.99    3.20
  -2   1   2  102.29    4.30
   1  -1  -2  358.46    6.80
   1  -1  -2  352.56    8.50
  -1   1   2  351.26    6.80
  -1   1   2  354.76    8.50
   0  -1  -2  180.08    4.50
   0  -1  -2  177.18    4.70
   0   1   2  172.28    4.50
  -1  -1  -2 1820.82   70.69
  -1  -1  -2 1841.82   69.59
   1   1   2 1976.50  172.68
  -2  -1  -2    7.00    1.00
   2   1   2    6.60    0.90
   2   1   2    5.50    0.80
  -3  -1  -2 2519.95  105.19
  -3  -1  -2 3084.89  293.27
   3   1   2 2704.23  105.99
   3   1   2 2604.24  281.57
   3   1   2 2570.24  107.79
  -4  -1  -2  116.19    4.50
  -4  -1  -2  114.59    4.20
   4   1   2  111.49    4.40
  -5  -1  -2    0.20    0.50
  -5  -1  -2   -0.20    0.40
   5   1   2    0.50    0.50
   5   1   2    1.50    0.70
  -6  -1  -2   41.10    3.20
  -6  -1  -2   39.80    3.00
   6   1   2   40.20    3.00
   6   1   2   35.90    3.00
  -7  -1  -2    6.90    1.80
  -7  -1  -2    5.20    1.60
   7   1   2    5.40    1.60
   7   1   2    4.70    1.40
  -8  -1  -2   71.19    4.90
  -8  -1  -2   67.39    5.00
   8   1   2   60.19    4.30
   8   1   2   63.29    4.80
  -9  -1  -2   81.09    5.80
  -9  -1  -2   85.49    6.20
   9   1   2   79.09    5.80
   9   1   2   72.69    5.10
   8  -2  -2   46.80    3.40
   8  -2  -2   48.00    6.00
   8  -2  -2   51.69    6.20
  -8   2   2   51.29    6.10
   7  -2  -2   40.70    4.90
   7  -2  -2   39.00    4.60
   7  -2  -2   48.10    3.20
  -7   2   2   35.90    4.50
   6  -2  -2  294.87    8.40
   6  -2  -2  295.37   11.00
   6  -2  -2  288.77   11.00
   5  -2  -2  522.65   14.80
   5  -2  -2  512.25   11.80
   5  -2  -2  508.45   14.70
  -5   2   2  506.45   14.90
   4  -2  -2   18.00    2.50
   4  -2  -2   23.00    3.00
   4  -2  -2   20.60    1.50
  -4   2   2   23.90    2.90
   3  -2  -2  159.48    6.10
   3  -2  -2  160.58    4.20
   3  -2  -2  156.78    6.00
  -3   2   2  158.08    6.20
   2  -2  -2  315.97    8.70
   2  -2  -2  325.87    6.40
   2  -2  -2  318.37    8.70
  -2   2   2  301.97    8.70
   1  -2  -2   10.60    1.50
  -1   2   2    8.00    1.20
   0  -2  -2  962.40  122.89
   0  -2  -2  821.52   46.10
   0  -2  -2  852.91   47.70
   0   2   2  779.82   45.10
   0   2   2  724.33   45.50
   0   2   2  932.11  152.58
  -1  -2  -2   92.79    2.30
   1   2   2   94.89    2.70
   1   2   2   89.09    2.30
  -2  -2  -2  642.04   43.70
  -2  -2  -2  944.01  202.18
  -2  -2  -2  686.13   47.20
   2   2   2  600.04   43.20
   2   2   2  571.84  144.69
   2   2   2  636.74   46.30
  -3  -2  -2   84.89    3.40
  -3  -2  -2   82.09    3.20
   3   2   2   81.19    3.20
   3   2   2   88.29    3.40
  -4  -2  -2  727.83   15.80
  -4  -2  -2  727.93   15.80
  -5  -2  -2   46.10    3.00
  -5  -2  -2   39.70    2.70
   5   2   2   45.20    2.90
   5   2   2   43.30    2.90
  -6  -2  -2    2.30    1.10
  -6  -2  -2   -0.80    0.40
   6   2   2    0.30    0.60
   6   2   2    0.30    0.60
  -7  -2  -2   53.19    4.00
  -7  -2  -2   48.00    3.70
   7   2   2   48.80    3.80
   7   2   2   48.90    3.60
  -8  -2  -2    4.00    1.60
   8   2   2    1.60    1.00
   8   2   2    5.20    1.80
  -9  -2  -2  308.07   11.90
  -9  -2  -2  298.77   11.90
   9   2   2  298.97   11.80
   9   2   2  298.27   11.20
   7  -3  -2    7.10    2.10
   7  -3  -2   10.40    1.70
   7  -3  -2    9.10    2.50
  -7   3   2   11.60    2.70
   6  -3  -2  224.28    6.80
   6  -3  -2  221.48    9.50
   6  -3  -2  221.98    9.70
   5  -3  -2  636.64   17.30
   5  -3  -2  620.54   17.30
   5  -3  -2  625.84   13.60
  -5   3   2  643.84   17.60
   4  -3  -2    7.40    1.00
   4  -3  -2    4.90    1.40
   4  -3  -2    7.50    1.80
  -4   3   2    6.20    1.60
   3  -3  -2  349.96   10.30
   3  -3  -2  370.16    7.50
   3  -3  -2  343.37   10.20
  -3   3   2  320.87   10.20
   2  -3  -2    5.20    0.50
   2  -3  -2    3.60    1.00
   2  -3  -2    4.50    1.10
  -2   3   2    5.30    1.20
   1  -3  -2 1227.38   64.69
   1  -3  -2 1247.98   62.99
   1  -3  -2 1234.98   58.49
   1  -3  -2 1238.18   60.69
  -1   3   2 1295.47  205.58
  -1   3   2 1554.24  221.08
   0  -3  -2   21.90    1.70
   0  -3  -2   23.70    0.90
   0   3   2   24.00    1.00
  -1  -3  -2 9830.32  231.68
  -1  -3  -2 9965.80  438.16
   1   3   2 9999.00  233.08
   1   3   2 9766.12  449.36
  -2  -3  -2  116.79    3.60
  -2  -3  -2  108.99    3.60
   2   3   2  100.99    3.50
   2   3   2  105.99    2.60
  -3  -3  -2  620.64  153.08
  -3  -3  -2  916.01   62.39
   3   3   2  989.60   64.19
   3   3   2  700.83  161.38
  -4  -3  -2  118.99    4.70
  -4  -3  -2  116.49    4.40
   4   3   2  115.19    4.30
   4   3   2  107.99    4.50
  -5  -3  -2   92.69    4.50
  -5  -3  -2   95.09    4.60
  -5  -3  -2   94.29    4.30
   5   3   2   95.19    4.30
   5   3   2   99.69    4.60
  -6  -3  -2   93.49    4.90
  -6  -3  -2   89.59    4.60
   6   3   2   99.39    4.80
   6   3   2   87.49    4.70
  -7  -3  -2  594.14   15.90
  -7  -3  -2  599.24   16.20
   7   3   2  577.54   15.70
   7   3   2  593.24   15.90
  -8  -3  -2  355.36   12.10
   8   3   2  356.86   12.10
   8   3   2  375.16   12.20
  -9  -3  -2   28.20    4.20
  -9  -3  -2   23.60    3.40
   9   3   2   25.80    3.90
   9   3   2   21.10    3.20
   7  -4  -2  372.16   14.20
   7  -4  -2  339.67    9.40
   7  -4  -2  357.86   13.50
  -7   4   2  355.46   13.90
   6  -4  -2    3.80    1.60
   6  -4  -2    3.90    1.00
   6  -4  -2    4.90    1.70
  -6   4   2    4.00    1.70
   5  -4  -2  159.58    7.70
   5  -4  -2  152.18    7.30
   5  -4  -2  166.38    5.00
  -5   4   2  172.28    7.90
   4  -4  -2   23.40    1.50
   4  -4  -2   26.90    3.40
   4  -4  -2   26.60    3.50
  -4   4   2   33.40    3.90
   3  -4  -2    2.00    1.00
   3  -4  -2    2.30    0.50
   3  -4  -2    3.10    1.20
  -3   4   2    2.60    1.10
   2  -4  -2  770.62   17.50
   2  -4  -2  728.03   17.40
  -2   4   2  765.42   17.60
   1  -4  -2    1.10    0.30
   1  -4  -2    0.40    0.50
  -1   4   2    2.70    1.00
   0  -4  -2 1157.18   56.09
   0  -4  -2 1196.98   55.29
   0  -4  -2 1155.58  145.29
   0   4   2 1182.98   57.49
   0   4   2 1117.89   57.99
   0   4   2 1240.18  156.08
  -1  -4  -2    4.90    0.30
  -1  -4  -2    4.50    0.70
   1   4   2    4.30    0.80
  -2  -4  -2 1945.81   90.19
  -2  -4  -2 1983.10   87.99
  -2  -4  -2 2337.57  256.77
   2   4   2 2006.70   92.69
   2   4   2 2141.89   92.09
  -3  -4  -2   90.19    3.50
  -3  -4  -2   93.89    3.90
   3   4   2   86.99    3.50
   3   4   2  100.29    3.90
  -4  -4  -2  985.50   20.20
  -4  -4  -2  980.80   21.10
   4   4   2 1008.90   21.10
  -5  -4  -2   44.00    3.10
  -5  -4  -2   55.19    3.10
  -5  -4  -2   47.20    3.20
   5   4   2   47.90    2.90
   5   4   2   46.60    3.20
  -6  -4  -2  270.97    8.70
  -6  -4  -2  269.47    9.30
  -6  -4  -2  282.17    9.50
   6   4   2  287.37    8.90
   6   4   2  264.67    9.10
  -7  -4  -2  611.64   16.20
  -7  -4  -2  613.24   16.80
   7   4   2  610.44   16.10
   7   4   2  624.84   16.60
  -8  -4  -2  438.36   13.70
   8   4   2  448.06   14.00
   8   4   2  446.26   13.80
  -9  -4  -2  153.58    8.20
  -9  -4  -2  168.18    8.20
   9   4   2  136.89    7.50
   9   4   2  149.09    7.80
   6  -5  -2  225.08    6.30
   6  -5  -2  214.18    9.60
   6  -5  -2  221.08   10.20
  -6   5   2  209.78    9.80
   5  -5  -2   53.49    4.40
   5  -5  -2   71.99    5.30
   5  -5  -2   68.79    2.80
   4  -5  -2   99.99    5.50
   4  -5  -2  101.89    3.20
   4  -5  -2   97.69    5.70
  -4   5   2   97.99    5.60
   3  -5  -2   10.40    0.90
   3  -5  -2   10.00    2.00
   3  -5  -2    9.30    1.90
   3  -5  -2   11.00    0.90
  -3   5   2    9.30    1.80
   2  -5  -2  645.64   15.80
   2  -5  -2  622.54   15.70
   2  -5  -2  636.74   12.30
  -2   5   2  634.64   15.90
   1  -5  -2 1908.41   70.79
   1  -5  -2 1782.22   70.49
   1  -5  -2 1733.93   71.89
   1  -5  -2 1945.11   74.69
  -1   5   2 1747.33  195.88
  -1   5   2 1477.95  178.18
   0  -5  -2  521.35   10.80
   0  -5  -2  540.25   13.30
  -1  -5  -2  962.90  189.38
  -1  -5  -2  835.52   49.40
  -1  -5  -2  795.82   50.49
   1   5   2  755.22  174.18
   1   5   2  840.52   51.09
   1   5   2  783.32   51.49
  -2  -5  -2    0.60    0.50
  -2  -5  -2    0.50    0.40
   2   5   2    1.10    0.50
  -3  -5  -2   27.30    1.80
  -3  -5  -2   26.30    2.10
   3   5   2   25.40    1.20
   3   5   2   27.90    2.10
  -4  -5  -2    1.50    0.60
  -4  -5  -2    1.90    0.80
   4   5   2    2.80    1.00
   4   5   2    4.10    1.00
  -5  -5  -2  705.93   16.20
  -5  -5  -2  734.83   17.50
   5   5   2  708.83   17.30
   5   5   2  742.83   16.40
  -6  -5  -2   97.29    4.70
  -6  -5  -2  100.69    5.40
  -6  -5  -2   98.49    5.30
   6   5   2  110.49    5.50
   6   5   2   92.19    4.60
  -7  -5  -2  398.56   12.80
  -7  -5  -2  384.36   11.70
  -7  -5  -2  393.96   14.40
   7   5   2  407.36   12.70
   7   5   2  384.26   11.70
  -8  -5  -2  381.26   13.20
  -8  -5  -2  368.06   12.10
   8   5   2  380.36   12.80
   8   5   2  365.76   12.10
  -9  -5  -2    0.50    1.10
  -9  -5  -2   -0.20    0.80
   9   5   2    0.00    0.80
   9   5   2    0.70    1.10
   6  -6  -2    2.20    0.70
   6  -6  -2    3.00    0.70
   6  -6  -2    3.70    1.90
   6  -6  -2    2.50    1.40
  -6   6   2    2.60    1.60
   5  -6  -2    5.80    1.80
   5  -6  -2    6.20    1.00
   5  -6  -2    5.30    0.90
   5  -6  -2    5.00    1.80
  -5   6   2    4.20    1.70
   4  -6  -2  256.17    9.90
   4  -6  -2  242.18    9.40
   4  -6  -2  243.28    6.00
   4  -6  -2  247.08    5.90
  -4   6   2  228.98    9.40
   3  -6  -2  187.18    7.80
   3  -6  -2  193.08    4.90
   3  -6  -2  196.28    7.80
  -3   6   2  196.08    8.00
   2  -6  -2  221.58    8.00
   2  -6  -2  228.48    8.30
   2  -6  -2  220.48    5.50
   1  -6  -2  134.59    3.90
   1  -6  -2  123.19    5.70
   0  -6  -2  493.75   13.10
   0  -6  -2  491.85   10.40
   0  -6  -2  470.85   10.60
   0   6   2  509.45   10.80
  -1  -6  -2   96.49    3.70
  -1  -6  -2   98.79    2.30
   1   6   2   97.89    3.80
  -2  -6  -2  615.04   13.40
  -2  -6  -2  603.54   13.80
   2   6   2  609.34   14.00
  -3  -6  -2   38.60    2.30
  -3  -6  -2   40.50    2.70
   3   6   2   36.30    2.60
  -4  -6  -2  217.08    7.40
  -4  -6  -2  211.98    6.40
   4   6   2  200.98    7.20
   4   6   2  202.58    5.40
  -5  -6  -2    5.90    1.30
  -5  -6  -2    7.40    1.70
   5   6   2    5.70    1.20
   5   6   2    5.10    1.10
   5   6   2    4.70    1.30
  -6  -6  -2  446.46   13.30
  -6  -6  -2  442.66   13.50
  -6  -6  -2  436.86   11.90
   6   6   2  441.76   11.90
  -7  -6  -2   18.30    2.60
  -7  -6  -2   12.30    2.30
  -7  -6  -2    8.70    3.30
   7   6   2   17.60    2.70
  -8  -6  -2   63.39    4.50
  -8  -6  -2   64.79    5.10
  -8  -6  -2   62.89    5.10
   8   6   2   71.59    5.20
   8   6   2   67.19    4.60
  -9  -6  -2    1.70    1.30
  -9  -6  -2   -0.20    0.90
   9   6   2    0.60    1.20
   9   6   2    0.70    1.00
   5  -7  -2    0.10    0.30
   5  -7  -2    0.10    0.70
   5  -7  -2    0.90    1.20
   5  -7  -2    0.30    0.40
  -5   7   2    0.40    0.90
   4  -7  -2   11.60    2.40
   4  -7  -2   15.40    1.20
   4  -7  -2   13.00    2.70
   4  -7  -2   14.50    1.20
   3  -7  -2  199.88    8.40
   3  -7  -2  195.08    8.20
   3  -7  -2  201.18    5.30
   2  -7  -2   94.39    3.30
   2  -7  -2   85.19    4.90
   2  -7  -2   94.59    5.30
   1  -7  -2  735.03   15.50
   1  -7  -2  780.72   16.50
   1  -7  -2  752.12   18.70
   0  -7  -2  176.08    7.20
   0  -7  -2  184.38    5.50
   0  -7  -2  188.98    5.10
  -1  -7  -2    0.70    0.50
  -1  -7  -2    0.70    0.20
   1   7   2    2.50    0.90
  -2  -7  -2  506.95   12.30
  -2  -7  -2  489.25   11.70
   2   7   2  500.75   12.60
  -3  -7  -2  609.74   14.90
  -3  -7  -2  604.44   13.60
   3   7   2  630.04   15.20
  -4  -7  -2   41.60    2.50
  -4  -7  -2   39.40    3.10
   4   7   2   38.50    3.10
   4   7   2   41.50    1.60
  -5  -7  -2 1098.09   25.10
  -5  -7  -2 1096.49   23.00
   5   7   2 1113.49   21.90
  -6  -7  -2  420.26   11.40
  -6  -7  -2  404.16   13.00
   6   7   2  431.76   11.70
   6   7   2  419.46   11.00
  -7  -7  -2   32.70    4.00
  -7  -7  -2   33.50    3.00
  -7  -7  -2   46.30    5.10
   7   7   2   35.90    3.10
   7   7   2   37.00    3.00
  -8  -7  -2  141.29    7.80
  -8  -7  -2  129.39    7.50
  -8  -7  -2  140.59    6.70
   8   7   2  129.19    6.50
   8   7   2  128.59    7.40
   8   7   2  131.19    6.60
  -9  -7  -2    2.30    1.60
  -9  -7  -2    2.80    1.60
  -9  -7  -2   -0.30    1.00
   9   7   2    3.80    1.60
   9   7   2    3.10    1.40
   9   7   2    1.00    1.10
   5  -8  -2  127.79    7.20
   5  -8  -2  133.29    3.20
   5  -8  -2  128.09    7.90
   5  -8  -2  126.09    3.10
   5  -8  -2  127.29    7.50
   4  -8  -2   69.89    2.50
   4  -8  -2   72.59    4.90
   4  -8  -2   78.49    5.40
   4  -8  -2   64.49    2.50
   4  -8  -2   66.29    5.30
   3  -8  -2  142.49    6.50
   3  -8  -2  156.98    7.50
   3  -8  -2  147.89    4.50
   3  -8  -2  147.69    7.40
   2  -8  -2   32.00    3.70
   2  -8  -2   24.00    1.70
   2  -8  -2   30.10    2.60
   2  -8  -2   23.50    3.40
   1  -8  -2    7.50    1.30
   1  -8  -2    9.30    1.90
   1  -8  -2   12.30    2.40
   1  -8  -2    7.90    1.40
   0  -8  -2  405.26   10.30
   0  -8  -2  415.36    9.40
   0  -8  -2  424.56   12.80
  -1  -8  -2   12.60    0.70
  -1  -8  -2   10.70    2.10
  -1  -8  -2   16.00    2.10
   1   8   2   13.00    1.90
  -2  -8  -2  306.97    8.40
  -2  -8  -2  293.77    8.90
   2   8   2  296.27    9.10
  -3  -8  -2  184.48    5.80
  -3  -8  -2  161.58    6.50
   3   8   2  166.38    6.70
  -4  -8  -2  415.16   12.40
  -4  -8  -2  451.75   10.90
   4   8   2  440.56   12.80
  -5  -8  -2  183.58    7.90
  -5  -8  -2  202.58    6.60
   5   8   2  198.18    5.30
   5   8   2  208.48    8.30
  -6  -8  -2  312.37    9.30
  -6  -8  -2  309.47   11.20
   6   8   2  308.47    8.60
  -7  -8  -2  174.38    7.00
  -7  -8  -2  171.38    8.50
  -7  -8  -2  183.28    8.90
   7   8   2  191.18    7.40
   7   8   2  183.58    6.80
   7   8   2  190.48    8.70
  -8  -8  -2    0.40    0.90
  -8  -8  -2   -0.80    0.50
  -8  -8  -2    1.40    1.20
   8   8   2    1.20    0.90
   8   8   2    2.60    1.30
   8   8   2    1.10    1.10
   4  -9  -2  323.67    7.20
   4  -9  -2  333.67   11.80
   4  -9  -2  317.97    7.10
   4  -9  -2  316.17   12.50
   4  -9  -2  325.17   12.40
   3  -9  -2  327.27    8.10
   3  -9  -2  343.27   12.20
   3  -9  -2  337.07   12.20
   3  -9  -2  328.17   10.90
   2  -9  -2   98.49    3.90
   2  -9  -2  102.09    4.90
   2  -9  -2   95.19    5.90
   2  -9  -2  100.59    5.70
   1  -9  -2  145.19    7.30
   1  -9  -2  147.29    6.70
   1  -9  -2  163.18    5.70
   1  -9  -2  149.79    5.30
   0  -9  -2   25.50    2.20
   0  -9  -2   24.30    1.70
   0  -9  -2   25.70    3.70
  -1  -9  -2  246.18    9.60
  -1  -9  -2  247.18    7.90
  -1  -9  -2  244.98    4.90
   1   9   2  246.48    8.00
  -2  -9  -2   96.29    4.80
  -2  -9  -2   97.49    4.30
   2   9   2   93.49    4.80
  -3  -9  -2 1329.37   28.60
  -3  -9  -2 1308.47   26.40
   3   9   2 1325.97   28.90
  -4  -9  -2    1.50    0.70
  -4  -9  -2    0.70    0.90
   4   9   2    2.50    1.20
  -5  -9  -2  138.09    5.20
  -5  -9  -2  136.39    6.80
   5   9   2  127.29    3.30
  -6  -9  -2  275.27    8.40
  -6  -9  -2  258.67   10.30
   6   9   2  261.97   10.40
   6   9   2  252.07    7.00
  -7  -9  -2    7.00    1.60
  -7  -9  -2    5.40    1.90
  -7  -9  -2    8.80    2.60
   7   9   2    5.00    1.20
   7   9   2    4.80    1.80
  -8  -9  -2   14.40    3.20
  -8  -9  -2   13.10    3.10
  -8  -9  -2   15.80    2.50
   8   9   2   15.60    2.60
   8   9   2   18.40    2.70
   8   9   2   15.00    3.20
   3 -10  -2   21.40    1.70
   3 -10  -2   21.70    3.50
   3 -10  -2   21.30    3.10
   3 -10  -2   27.30    4.10
   2 -10  -2  155.28    6.60
   2 -10  -2  176.98    8.10
   2 -10  -2  184.98    5.90
   2 -10  -2  174.38    8.60
   1 -10  -2   43.70    4.10
   1 -10  -2   38.60    4.00
   1 -10  -2   30.30    2.40
   1 -10  -2   43.20    2.80
   0 -10  -2  411.06   12.20
   0 -10  -2  425.66   14.00
   0 -10  -2  423.96    9.60
   0 -10  -2  416.96   11.40
  -1 -10  -2   79.89    4.40
  -1 -10  -2   85.59    5.70
   1  10   2   98.09    4.80
  -2 -10  -2  408.76   12.00
  -2 -10  -2  421.46   11.10
   2  10   2  411.76   12.20
  -3 -10  -2   23.10    2.40
  -3 -10  -2   19.20    2.80
   3  10   2   18.80    2.80
  -4 -10  -2  476.55   11.70
  -4 -10  -2  466.95   14.10
  -5 -10  -2    2.00    0.90
  -5 -10  -2    0.30    0.90
   5  10   2    2.50    1.30
  -6 -10  -2  107.49    4.70
  -6 -10  -2   93.89    6.20
   6  10   2   87.39    6.00
   6  10   2   98.89    3.10
  -7 -10  -2   75.99    5.90
  -7 -10  -2   70.29    4.10
  -7 -10  -2   65.49    5.70
   7  10   2   69.59    3.40
   7  10   2   81.79    6.00
   1 -11  -2   17.10    2.30
   1 -11  -2   15.40    3.10
   1 -11  -2   17.90    2.20
   1 -11  -2   19.30    3.10
   0 -11  -2   10.10    2.10
   0 -11  -2   11.60    2.10
   0 -11  -2    8.90    2.40
   0 -11  -2   10.10    1.20
  -1 -11  -2  176.58    8.80
  -1 -11  -2  188.28    7.20
  -1 -11  -2  188.28    7.40
  -2 -11  -2   55.79    4.00
  -2 -11  -2   56.89    3.40
   2  11   2   52.59    4.00
  -3 -11  -2  124.39    5.00
  -3 -11  -2  124.49    6.40
  -4 -11  -2  210.68    6.80
  -4 -11  -2  220.28    9.20
   4  11   2  219.08    9.30
  -5 -11  -2    0.30    0.90
  -5 -11  -2    1.00    0.70
   5  11   2    0.60    1.00
  -6 -11  -2   85.99    4.10
  -6 -11  -2   84.69    6.10
   6  11   2   76.19    5.90
  -1 -12  -2    6.80    1.80
  -1 -12  -2    3.50    1.30
  -1 -12  -2    2.90    1.50
  -2 -12  -2   50.19    3.30
  -2 -12  -2   55.89    5.10
  -2 -12  -2   61.29    3.70
  -2 -12  -2   54.99    4.20
   2  12   2   38.50    4.40
  -3 -12  -2    5.20    1.80
  -3 -12  -2    7.00    1.40
   3  12   2    5.30    1.80
  -4 -12  -2   10.30    2.50
  -4 -12  -2    8.70    1.50
   4  12   2    6.30    1.90
  -5 -12  -2  145.49    5.20
  -5 -12  -2  140.59    7.90
   5  12   2  136.19    7.90
   3  11  -3   81.29    4.80
   3  11  -3   79.59    6.30
  -3 -11   3   81.39    5.70
  -3 -11   3   66.89    5.70
   2  11  -3  224.58    8.30
  -2 -11   3  240.08    8.90
  -2 -11   3  218.58    9.30
  -2 -11   3  240.78   10.70
  -1 -11   3  108.39    6.80
  -1 -11   3   97.09    5.70
  -1 -11   3  113.19    5.70
   0 -11   3  284.37   10.30
   0 -11   3  276.27    9.70
   0 -11   3  279.47   11.40
   1 -11   3   65.59    5.20
   1 -11   3   62.39    4.40
   1 -11   3   61.99    1.70
   1 -11   3   59.49    4.20
   5  10  -3    4.70    2.00
  -5 -10   3    9.10    2.60
   4  10  -3  433.66   15.30
   4  10  -3  416.96   12.70
  -4 -10   3  426.26   14.50
  -4 -10   3  409.06   14.90
   3  10  -3    7.30    2.20
   3  10  -3    7.70    1.80
  -3 -10   3    8.10    2.00
  -3 -10   3    5.10    1.90
   2  10  -3   17.90    2.60
   2  10  -3   18.10    3.10
  -2 -10   3   16.40    2.50
  -2 -10   3   26.90    4.20
  -2 -10   3   21.20    3.20
   1  10  -3  104.89    5.20
  -1 -10   3  103.29    6.30
  -1 -10   3  100.39    5.20
  -1 -10   3  105.69    5.70
   0 -10   3    0.70    0.90
   0 -10   3    0.40    0.70
   1 -10   3  100.69    5.20
   1 -10   3   95.89    5.30
   1 -10   3  101.09    3.20
   1 -10   3  103.49    6.20
   2 -10   3   39.30    2.60
   2 -10   3   42.60    4.50
   2 -10   3   42.80    4.70
   2 -10   3   34.70    3.00
   3 -10   3   53.89    4.40
   3 -10   3   63.99    3.90
   3 -10   3   66.19    4.00
   3 -10   3   56.59    4.60
   6   9  -3   10.40    2.40
   6   9  -3    8.60    2.60
  -6  -9   3    9.60    2.80
  -6  -9   3   19.40    3.90
   5   9  -3   69.19    5.60
  -5  -9   3   66.49    5.50
  -5  -9   3   65.99    5.40
   4   9  -3    8.50    1.90
   4   9  -3   14.40    3.00
  -4  -9   3   12.20    2.80
  -4  -9   3   14.90    2.90
   3   9  -3  363.76   13.10
   3   9  -3  391.76   11.50
  -3  -9   3  364.66   12.30
  -3  -9   3  378.06   13.20
   2   9  -3  361.46   12.60
   2   9  -3  350.46   10.60
  -2  -9   3  349.57   11.40
  -2  -9   3  363.76   12.50
  -2  -9   3  348.17   11.00
   1   9  -3   30.20    3.30
  -1  -9   3   26.40    3.20
  -1  -9   3   23.10    3.00
  -1  -9   3   32.00    4.20
   0   9  -3  200.88    7.50
   0  -9   3  183.18    7.10
   0  -9   3  182.68    8.20
   1  -9   3    0.60    0.40
   1  -9   3    1.40    1.00
   1  -9   3    2.60    1.10
   1  -9   3    0.60    0.60
   2  -9   3   88.19    5.40
   2  -9   3   94.19    4.50
   2  -9   3   88.59    3.90
   2  -9   3   84.39    5.00
   3  -9   3  179.08    7.90
   3  -9   3  181.68    8.00
   3  -9   3  172.28    6.30
   3  -9   3  166.88    6.50
   4  -9   3   27.90    4.10
   4  -9   3   25.00    3.60
   4  -9   3   24.70    2.70
   4  -9   3   21.10    3.00
   6   8  -3  133.79    7.10
   6   8  -3  134.79    7.80
   6   8  -3  128.19    4.10
  -6  -8   3  130.19    7.60
  -6  -8   3  128.89    7.90
   5   8  -3   15.00    2.70
   5   8  -3   17.90    3.30
  -5  -8   3   19.00    3.30
  -5  -8   3   14.30    2.90
   4   8  -3    1.10    0.80
   4   8  -3    0.00    0.50
  -4  -8   3   -0.10    0.60
  -4  -8   3    1.70    1.10
   3   8  -3  455.45   12.70
  -3  -8   3  427.26   14.00
  -3  -8   3  474.35   13.80
   2   8  -3   72.59    4.10
  -2  -8   3   76.99    4.40
  -2  -8   3   70.69    4.40
  -2  -8   3   67.19    4.70
   1   8  -3  589.44   14.70
  -1  -8   3  582.24   14.80
  -1  -8   3  567.74   16.10
  -1  -8   3  569.74   14.60
   0   8  -3   34.70    2.80
   0  -8   3   31.80    3.80
   0  -8   3   30.50    2.60
   1  -8   3  277.57    6.80
   1  -8   3  297.77    8.70
   1  -8   3  269.07    9.00
   1  -8   3  282.87    9.90
   2  -8   3   12.70    2.20
   2  -8   3   14.70    2.60
   2  -8   3   15.20    1.80
   2  -8   3    9.50    1.60
   3  -8   3  270.47    8.60
   3  -8   3  268.87    9.70
   3  -8   3  275.57    9.90
   3  -8   3  267.87    7.90
   4  -8   3   43.00    3.50
   4  -8   3   52.59    3.10
   4  -8   3   52.89    4.10
   4  -8   3   51.59    4.20
   5  -8   3   42.10    2.90
   5  -8   3   51.09    4.50
   5  -8   3   44.50    3.90
   5  -8   3   49.20    4.00
   7   7  -3    5.70    1.90
   7   7  -3    5.10    2.00
   7   7  -3    5.70    1.40
  -7  -7   3    4.60    1.90
  -7  -7   3    4.30    2.00
   6   7  -3    1.60    1.10
   6   7  -3    0.00    0.80
   6   7  -3    2.40    0.80
  -6  -7   3   -0.30    0.80
  -6  -7   3   -0.70    0.80
   5   7  -3  159.38    4.60
   5   7  -3  174.88    8.20
   5   7  -3  157.48    7.30
  -5  -7   3  164.48    8.10
  -5  -7   3  153.88    7.80
   4   7  -3  321.67   10.60
  -4  -7   3  325.87   11.50
  -4  -7   3  326.47   11.30
   3   7  -3   81.49    4.50
  -3  -7   3   89.59    5.00
  -3  -7   3   80.49    5.10
   2   7  -3  874.11   21.70
   2   7  -3  925.41   20.40
  -2  -7   3  913.01   21.90
  -2  -7   3  881.71   20.40
  -2  -7   3  901.91   20.70
   1   7  -3  126.29    5.20
   1   7  -3  102.89    5.50
  -1  -7   3   99.59    5.40
  -1  -7   3  111.19    5.00
  -1  -7   3  110.69    5.00
   0   7  -3  394.96   11.00
   0  -7   3  380.06   10.70
   0  -7   3  392.66   11.90
  -1   7  -3   56.29    3.60
   1  -7   3   59.89    3.60
   1  -7   3   61.49    2.50
   1  -7   3   53.89    3.80
   2  -7   3  233.38    8.50
   2  -7   3  245.18    8.50
   2  -7   3  241.38    7.00
   2  -7   3  248.28    7.00
   3  -7   3   60.29    4.00
   3  -7   3   57.69    4.00
   3  -7   3   63.99    3.60
   3  -7   3   63.49    3.10
   4  -7   3  362.06   12.00
   4  -7   3  372.86    9.50
   4  -7   3  363.66   11.40
   4  -7   3  339.27   10.80
   5  -7   3  649.14   18.60
   5  -7   3  635.94   17.30
   5  -7   3  659.43   15.10
   5  -7   3  670.33   17.70
   6  -7   3  181.48    8.50
   6  -7   3  183.68    8.00
   6  -7   3  172.98    6.40
   6  -7   3  198.38    9.50
   7   6  -3    6.30    2.00
   7   6  -3    8.70    1.90
   7   6  -3    6.60    2.10
  -7  -6   3    8.10    2.40
  -7  -6   3    8.30    2.50
   6   6  -3  332.07   12.10
   6   6  -3  321.47    9.40
  -6  -6   3  337.57   12.70
  -6  -6   3  337.57   12.10
   5   6  -3  198.78    6.00
   5   6  -3  198.88    8.50
   5   6  -3  185.28    8.00
  -5  -6   3  183.58    8.20
  -5  -6   3  191.98    8.60
   4   6  -3   31.80    1.70
   4   6  -3   33.40    3.90
   4   6  -3   30.10    3.50
  -4  -6   3   35.70    4.10
  -4  -6   3   35.60    3.90
   3   6  -3  815.22   19.00
   3   6  -3  801.22   19.80
  -3  -6   3  794.32   19.70
  -3  -6   3  790.12   19.20
   2   6  -3  592.34   15.70
   2   6  -3  632.04   14.80
  -2  -6   3  592.74   15.60
  -2  -6   3  568.24   14.70
  -2  -6   3  606.84   14.90
   1   6  -3  177.48    7.00
   1   6  -3  183.58    6.40
  -1  -6   3  177.78    6.20
  -1  -6   3  169.18    6.20
  -1  -6   3  191.88    7.30
   0   6  -3  455.85   11.70
   0  -6   3  423.66   11.30
   0  -6   3  444.36   12.30
  -1   6  -3  496.15   12.70
   1  -6   3  499.15   10.40
   1  -6   3  471.15   13.00
   1  -6   3  508.15   12.70
   2  -6   3    2.50    1.00
   2  -6   3    0.70    0.50
   2  -6   3    1.00    0.60
   2  -6   3    3.10    1.10
   3  -6   3  343.37    8.40
   3  -6   3  350.26    9.60
   3  -6   3  334.97   10.60
   3  -6   3  338.47   10.30
   4  -6   3   32.50    3.90
   4  -6   3   32.90    2.80
   4  -6   3   30.90    2.10
   4  -6   3   35.20    3.00
   5  -6   3   38.00    3.40
   5  -6   3   44.70    4.90
   5  -6   3   37.90    2.50
   6  -6   3   53.49    3.30
   6  -6   3   61.39    5.00
   6  -6   3   53.19    4.40
   7  -6   3  165.58    6.60
   7  -6   3  175.18    8.70
   7  -6   3  163.68    9.00
   7   5  -3   58.49    4.80
   7   5  -3   58.99    4.10
   7   5  -3   59.49    5.10
  -7  -5   3   71.99    5.80
  -7  -5   3   63.99    5.10
   6   5  -3   90.89    5.60
   6   5  -3   88.09    4.50
  -6  -5   3   89.99    6.10
  -6  -5   3   85.59    5.50
   5   5  -3  764.12   16.80
   5   5  -3  763.02   19.50
   5   5  -3  772.42   19.50
  -5  -5   3  734.73   19.20
  -5  -5   3  737.63   19.90
   4   5  -3  708.03   18.10
   4   5  -3  732.13   15.10
   4   5  -3  729.83   18.10
  -4  -5   3  713.03   18.20
  -4  -5   3  714.83   18.40
   3   5  -3   83.39    4.40
   3   5  -3   79.99    2.60
   3   5  -3   78.59    4.50
  -3  -5   3   83.79    4.50
  -3  -5   3   88.39    4.70
   2   5  -3  575.54   13.90
   2   5  -3  563.14   14.50
  -2  -5   3  546.85   14.00
  -2  -5   3  556.84   13.80
   1   5  -3  301.77    9.10
   1   5  -3  286.17    8.40
  -1  -5   3  286.77    8.10
  -1  -5   3  279.97    8.30
  -1  -5   3  293.47    9.10
   0   5  -3  293.87    8.40
   0  -5   3  289.17    7.50
   0  -5   3  278.97    8.10
   0  -5   3  282.67    8.80
  -1   5  -3  713.13   16.20
   1  -5   3  694.33   16.00
   1  -5   3  700.23   16.40
   1  -5   3  686.73   13.70
  -2   5  -3  880.51   20.60
   2  -5   3  962.50   19.00
   2  -5   3  958.40   20.80
   2  -5   3  949.51   20.70
   2  -5   3  954.30   18.30
  -3   5  -3  182.48    6.30
   3  -5   3  176.78    4.90
   3  -5   3  176.08    6.80
   3  -5   3  173.58    6.00
  -4   5  -3  836.92   19.50
   4  -5   3  833.32   20.30
   4  -5   3  846.82   19.30
   4  -5   3  828.92   17.00
  -5   5  -3   -0.20    0.70
   5  -5   3    1.20    0.70
   5  -5   3    0.00    0.60
   5  -5   3    0.60    0.80
   6  -5   3   51.79    3.10
   6  -5   3   49.70    4.10
   6  -5   3   49.10    5.20
  -7   5  -3   23.50    2.80
   7  -5   3   20.10    3.70
   7  -5   3   23.80    2.80
   7  -5   3   18.10    3.20
   8   4  -3   45.20    5.90
   8   4  -3   61.59    5.00
   8   4  -3   64.59    4.90
  -8  -4   3   60.69    5.70
  -8  -4   3   63.69    5.20
   7   4  -3    0.00    0.80
   7   4  -3    0.00    0.60
   7   4  -3    0.30    1.00
  -7  -4   3    0.10    1.00
  -7  -4   3   -0.30    0.60
   6   4  -3   10.80    2.20
   6   4  -3   11.80    2.00
  -6  -4   3   17.90    3.00
   5   4  -3  245.48    7.90
   5   4  -3  269.87    9.40
   5   4  -3  237.78    9.30
  -5  -4   3  255.27    9.10
  -5  -4   3  263.87   10.00
   4   4  -3   16.60    2.40
   4   4  -3   13.80    2.20
   4   4  -3   15.60    1.80
  -4  -4   3   14.30    2.30
  -4  -4   3   13.00    2.10
   3   4  -3   28.70    2.50
   3   4  -3   28.60    2.50
   3   4  -3   19.30    1.40
  -3  -4   3   22.50    2.70
  -3  -4   3   26.90    3.10
   2   4  -3  251.87    5.40
   2   4  -3  248.38    7.80
   2   4  -3  254.97    8.10
  -2  -4   3  243.68    7.90
  -2  -4   3  245.58    7.90
  -2  -4   3  256.57    7.80
   1   4  -3  180.08    6.00
   1   4  -3  185.08    6.40
  -1  -4   3  177.78    6.00
  -1  -4   3  181.78    5.70
  -1  -4   3  186.18    6.40
   0   4  -3   39.80    2.50
   0   4  -3   41.40    1.20
   0  -4   3   39.30    2.50
   0  -4   3   38.20    2.60
   0  -4   3   41.10    2.10
  -1   4  -3 1279.57   68.99
  -1   4  -3 1324.87   66.89
  -1   4  -3 1309.27   63.39
  -1   4  -3 1269.57   66.89
   1  -4   3 1421.66  230.38
   1  -4   3 1421.66  249.58
  -2   4  -3   28.90    1.90
  -2   4  -3   28.60    2.30
   2  -4   3   25.50    1.70
   2  -4   3   29.60    2.30
   2  -4   3   27.60    1.30
  -3   4  -3  251.77    7.60
   3  -4   3  252.67    8.20
   3  -4   3  247.48    5.80
   3  -4   3  257.37    7.40
  -4   4  -3   10.40    1.80
   4  -4   3   12.00    1.10
   4  -4   3    9.10    1.80
   4  -4   3   10.20    1.70
  -5   4  -3  288.77    7.60
  -5   4  -3  273.27    9.50
   5  -4   3  267.57    9.80
   5  -4   3  277.77    9.40
   5  -4   3  271.57    7.40
  -6   4  -3   17.20    2.20
   6  -4   3   17.70    3.10
   6  -4   3   12.70    2.40
   6  -4   3   16.20    2.10
  -7   4  -3  234.48   10.10
  -7   4  -3  243.28    8.20
   7  -4   3  232.88    7.90
   7  -4   3  242.68   10.00
   7  -4   3  229.08   10.10
  -8   4  -3   54.49    6.20
  -8   4  -3   38.00    3.30
   8  -4   3   53.09    3.80
   8  -4   3   44.90    4.00
   8  -4   3   40.40    5.10
   8  -4   3   47.00    5.30
   8   3  -3    2.40    1.50
   8   3  -3    0.50    1.20
   8   3  -3    0.40    1.00
  -8  -3   3    1.10    1.20
  -8  -3   3    1.30    1.30
   7   3  -3  513.75   15.00
   7   3  -3  500.05   14.90
   7   3  -3  505.75   16.90
  -7  -3   3  483.45   16.60
  -7  -3   3  524.25   15.40
   6   3  -3   75.29    5.50
   6   3  -3   81.99    4.80
   6   3  -3   83.29    4.90
  -6  -3   3   81.29    5.00
   5   3  -3  160.38    7.60
   5   3  -3  161.88    6.80
   5   3  -3  175.98    6.50
   5   3  -3  172.58    7.70
  -5  -3   3  172.38    7.00
  -5  -3   3  172.68    7.70
   4   3  -3  163.18    7.10
   4   3  -3  170.28    5.80
   4   3  -3  161.68    6.50
   4   3  -3  177.48    7.20
  -4  -3   3  175.18    6.60
  -4  -3   3  170.98    7.10
   3   3  -3   43.80    3.20
   3   3  -3   42.40    2.30
   3   3  -3   36.50    2.90
   3   3  -3   47.10    3.00
  -3  -3   3   41.50    2.80
  -3  -3   3   43.40    3.10
   2   3  -3    9.80    1.60
   2   3  -3    9.00    1.50
   2   3  -3    5.80    1.30
   2   3  -3    8.90    1.00
  -2  -3   3    5.90    1.40
  -2  -3   3    6.90    1.40
  -2  -3   3    7.30    1.40
   1   3  -3   64.49    3.20
   1   3  -3   70.39    3.40
  -1  -3   3   62.59    3.30
  -1  -3   3   71.89    3.40
  -1  -3   3   66.39    3.10
   0   3  -3  896.31   59.89
   0   3  -3  929.11   57.69
   0  -3   3  750.62  170.08
  -1   3  -3  335.07    7.20
  -1   3  -3  324.37    8.60
   1  -3   3  316.67    8.50
   1  -3   3  321.97    7.10
   1  -3   3  329.47    8.70
   1  -3   3  325.87    6.70
  -2   3  -3 1905.41   80.79
  -2   3  -3 1822.12  194.88
  -2   3  -3 1852.01   77.89
   2  -3   3 2012.20   83.99
   2  -3   3 2013.60   87.29
   2  -3   3 1894.71  205.08
  -3   3  -3  715.83   15.60
   3  -3   3  685.63   15.20
   3  -3   3  700.43   16.30
  -4   3  -3   89.09    4.40
  -4   3  -3   91.89    3.10
   4  -3   3   88.99    3.00
   4  -3   3   91.19    4.30
   4  -3   3   91.69    4.70
  -5   3  -3    1.20    0.60
  -5   3  -3    1.70    1.00
   5  -3   3    1.30    0.60
   5  -3   3    2.50    1.10
   5  -3   3    2.20    1.00
  -6   3  -3    6.50    1.70
  -6   3  -3    8.30    1.50
   6  -3   3    8.20    2.10
   6  -3   3    6.70    1.30
   6  -3   3    7.80    2.00
  -7   3  -3  363.46   12.90
  -7   3  -3  381.46   11.00
   7  -3   3  373.86   12.00
   7  -3   3  383.26   12.90
   7  -3   3  395.96   13.70
   7  -3   3  401.16   11.10
  -8   3  -3  124.19    6.10
  -8   3  -3  121.39    7.30
   8  -3   3  131.89    7.90
   8  -3   3  117.79    6.50
   8  -3   3  113.89    7.10
   8   2  -3  142.89    8.80
   8   2  -3  162.18    9.30
   8   2  -3  162.28    7.60
   8   2  -3  161.38    8.30
  -8  -2   3  146.59    8.90
   7   2  -3  292.77   11.90
   7   2  -3  253.17   11.30
   7   2  -3  270.27   10.30
   7   2  -3  256.87    9.50
  -7  -2   3  255.57   11.30
  -7  -2   3  253.27    9.70
   6   2  -3  278.57   10.90
   6   2  -3  267.37    9.50
   6   2  -3  247.58    8.90
  -6  -2   3  262.47    9.20
   5   2  -3  124.19    5.50
   5   2  -3  122.29    6.40
   5   2  -3  124.79    6.50
   5   2  -3  122.09    5.60
  -5  -2   3  125.09    5.60
   4   2  -3  397.06   10.80
   4   2  -3  404.76   10.70
   4   2  -3  401.56   12.10
   4   2  -3  379.26   11.80
  -4  -2   3  402.26   10.90
  -4  -2   3  398.56   12.00
   3   2  -3  123.89    5.50
   3   2  -3  130.89    5.00
   3   2  -3  126.39    4.60
   3   2  -3  129.49    5.60
  -3  -2   3  123.29    4.90
  -3  -2   3  130.09    5.50
   2   2  -3  252.37    7.20
   2   2  -3  271.07    6.60
   2   2  -3  248.88    7.60
   2   2  -3  253.47    7.80
  -2  -2   3  253.47    7.30
  -2  -2   3  262.17    7.70
   1   2  -3 3145.89  433.46
   1   2  -3 3185.58  123.69
   1   2  -3 2976.70  124.39
  -1  -2   3 2947.31  125.09
  -1  -2   3 3214.38  124.89
   0   2  -3   55.59    1.90
   0   2  -3   49.50    2.60
   0   2  -3   53.29    2.20
   0  -2   3   51.49    2.60
   0  -2   3   51.49    2.60
   0  -2   3   54.89    2.20
  -1   2  -3 1206.28   64.99
  -1   2  -3 1230.28   67.09
   1  -2   3  792.52  152.68
  -2   2  -3  100.69    4.10
  -2   2  -3  107.99    3.60
   2  -2   3  108.69    3.60
   2  -2   3   96.49    4.00
  -3   2  -3  329.77    8.70
  -3   2  -3  347.67    6.80
   3  -2   3  348.67    8.80
   3  -2   3  341.87    9.40
  -4   2  -3   11.20    1.20
  -4   2  -3    8.40    1.60
   4  -2   3    9.40    1.60
   4  -2   3    7.40    1.50
   4  -2   3    8.20    1.00
  -5   2  -3  585.54   15.20
  -5   2  -3  614.84   13.30
   5  -2   3  618.44   15.90
   5  -2   3  594.44   15.20
   5  -2   3  621.14   13.30
  -6   2  -3  187.58    6.30
  -6   2  -3  163.18    7.20
   6  -2   3  174.68    6.00
   6  -2   3  178.18    7.40
   6  -2   3  173.28    7.70
  -7   2  -3   79.19    4.30
   7  -2   3   78.99    5.40
   7  -2   3   84.79    5.40
   7  -2   3   79.89    4.80
  -8   2  -3  304.17   10.30
   8  -2   3  307.07   10.90
   8  -2   3  302.37   12.20
   8  -2   3  313.57   11.90
  -9   2  -3   23.10    4.10
   9  -2   3   30.20    4.00
   9  -2   3   19.30    3.70
   9  -2   3   19.50    3.70
   8   1  -3    4.30    1.90
   8   1  -3    3.20    1.70
   8   1  -3    2.30    1.70
   8   1  -3    7.30    1.90
  -8  -1   3    3.50    2.00
   7   1  -3  458.25   15.60
   7   1  -3  424.76   15.50
   7   1  -3  437.26   14.20
   7   1  -3  426.76   12.70
  -7  -1   3  426.26   15.20
   6   1  -3   82.79    5.60
   6   1  -3   69.79    4.20
   6   1  -3   75.49    4.90
  -6  -1   3   75.99    4.40
   5   1  -3    0.80    0.80
   5   1  -3    0.30    0.50
   5   1  -3    0.00    0.50
   5   1  -3    0.70    0.80
  -5  -1   3    1.10    0.70
   4   1  -3  293.87    9.80
   4   1  -3  280.67    8.30
   4   1  -3  288.97    8.90
   4   1  -3  296.77   10.00
  -4  -1   3  298.87    9.90
  -4  -1   3  299.07    8.50
   3   1  -3  217.08    7.50
   3   1  -3  225.88    6.60
   3   1  -3  212.28    6.70
   3   1  -3  221.78    7.70
  -3  -1   3  204.78    6.40
  -3  -1   3  217.48    7.60
   2   1  -3  908.11   18.50
   2   1  -3  930.41   18.60
  -2  -1   3  903.31   19.60
   1   1  -3  316.27    8.40
   1   1  -3  318.77    8.10
   1   1  -3  317.07    7.70
  -1  -1   3  313.37    8.10
  -1  -1   3  328.07    8.60
  -1  -1   3  319.07    7.80
   0   1  -3 7722.63  222.08
   0   1  -3 8001.30  209.18
   0  -1   3 7424.26  433.66
   0  -1   3 7666.73  462.75
  -1   1  -3   23.10    1.30
  -1   1  -3   22.80    1.00
   1  -1   3   22.80    1.30
   1  -1   3   22.90    1.00
   1  -1   3   24.00    1.60
  -2   1  -3 2056.49  207.58
  -2   1  -3 1803.32   82.19
  -2   1  -3 1804.62   81.29
   2  -1   3 1935.31  212.08
   2  -1   3 2031.10   87.39
  -3   1  -3  130.99    4.60
  -3   1  -3  142.79    3.40
   3  -1   3  142.39    4.70
   3  -1   3  137.99    5.00
  -4   1  -3  237.28    5.90
  -4   1  -3  226.58    7.10
   4  -1   3  222.18    7.00
   4  -1   3  217.78    7.20
  -5   1  -3    6.10    1.50
  -5   1  -3    8.80    1.40
   5  -1   3    8.90    1.60
   5  -1   3    7.70    1.70
  -6   1  -3 1197.48   24.60
  -6   1  -3 1165.88   26.30
   6  -1   3 1184.28   26.80
   6  -1   3 1177.28   26.20
   6  -1   3 1165.38   25.60
  -7   1  -3  387.06   11.20
   7  -1   3  391.96   12.90
   7  -1   3  379.66   12.40
   7  -1   3  379.66   11.70
  -8   1  -3  261.87    9.50
  -8   1  -3  275.67   10.90
   8  -1   3  262.97    9.80
   8  -1   3  263.07   10.60
   8  -1   3  256.07   10.80
  -9   1  -3   42.60    5.20
   9  -1   3   49.50    4.30
   9  -1   3   45.40    5.30
   9  -1   3   41.70    5.30
   8   0  -3  155.78    8.60
   8   0  -3  156.68    6.90
   8   0  -3  137.69    8.50
   8   0  -3  134.69    8.80
  -8   0   3  126.69    8.40
   7   0  -3    0.30    0.90
   7   0  -3   -0.80    0.50
   7   0  -3   -0.30    0.50
   7   0  -3   -0.10    0.90
  -7   0   3   -0.60    0.70
   6   0  -3  217.58    9.10
   6   0  -3  231.08    7.80
   6   0  -3  240.18   10.00
   5   0  -3  131.89    6.20
   5   0  -3  118.29    4.90
   5   0  -3  119.09    6.30
  -5   0   3  123.49    5.10
  -5   0   3  122.49    6.50
   4   0  -3  185.78    7.60
   4   0  -3  158.28    7.00
   4   0  -3  181.58    5.80
   4   0  -3  179.18    6.90
  -4   0   3  182.08    5.90
  -4   0   3  192.68    7.60
   3   0  -3  393.66   10.60
   3   0  -3  382.26   11.20
   3   0  -3  404.56   11.30
   3   0  -3  394.06    9.30
  -3   0   3  398.76    9.40
  -3   0   3  387.16   11.10
   2   0  -3  309.97    7.40
   2   0  -3  307.07    8.80
  -2   0   3  315.07    7.40
  -2   0   3  309.07    8.80
   1   0  -3 1073.59  245.28
   1   0  -3 1018.20   66.79
   1   0  -3  934.41   60.99
  -1   0   3 1004.20   64.09
  -1   0   3  952.80   65.59
  -1   0   3  685.13  175.88
   0   0  -3  251.67    6.30
   0   0  -3  253.47    6.60
   0   0   3  265.57    6.40
   0   0   3  251.67    6.60
   0   0   3  253.37    6.00
  -1   0  -3   35.40    1.80
  -1   0  -3   33.00    1.50
  -1   0  -3   34.80    1.90
   1   0   3   31.40    1.80
   1   0   3   33.70    1.50
  -2   0  -3    0.10    0.30
  -2   0  -3    0.30    0.40
   2   0   3    0.30    0.40
   2   0   3    0.10    0.30
  -3   0  -3 1304.77   71.69
   3   0   3 1222.68   70.69
   3   0   3 1062.59  189.08
   3   0   3 1244.48   73.49
  -4   0  -3   98.69    4.20
  -4   0  -3  103.29    3.50
   4   0   3   98.69    4.20
   4   0   3   95.69    4.30
  -5   0  -3  826.82   18.80
   5   0   3  871.61   18.80
   5   0   3  812.42   18.70
   5   0   3  805.82   19.00
  -6   0  -3  371.76   11.30
  -6   0  -3  368.16   10.20
   6   0   3  370.66   11.20
   6   0   3  363.56   10.80
  -7   0  -3  353.66   10.80
   7   0   3  330.17   10.70
   7   0   3  358.86   11.60
  -8   0  -3   62.99    4.40
   8   0   3   57.29    4.60
   8   0   3   58.29    4.30
  -9   0  -3  288.97   11.80
   9   0   3  246.28   11.00
   9   0   3  267.97   10.40
   7  -1  -3    9.20    2.30
   7  -1  -3   10.70    1.90
   7  -1  -3   16.80    3.20
  -7   1   3    9.50    2.60
   6  -1  -3   18.00    3.20
   6  -1  -3   11.90    2.60
   6  -1  -3   12.80    1.90
  -6   1   3   11.00    2.60
   5  -1  -3   56.89    4.40
   5  -1  -3   61.49    3.20
   5  -1  -3   58.69    4.30
  -5   1   3   64.59    4.70
   4  -1  -3   31.90    3.50
   4  -1  -3   36.30    3.20
   4  -1  -3   33.10    2.10
  -4   1   3   39.70    3.40
  -4   1   3   36.50    2.20
   3  -1  -3  961.80   21.30
   3  -1  -3  936.41   18.30
   3  -1  -3  954.10   20.80
  -3   1   3  903.71   21.20
   2  -1  -3  524.85   10.60
   2  -1  -3  538.05   13.10
   2  -1  -3  515.35   12.90
  -2   1   3  511.55   10.60
  -2   1   3  542.55   13.20
   1  -1  -3   88.79    3.70
   1  -1  -3   85.09    3.60
  -1   1   3   83.79    2.50
   0  -1  -3  773.92   56.99
   0  -1  -3  746.33   53.99
   0   1   3  825.32  181.98
  -1  -1  -3    3.20    0.70
  -1  -1  -3    2.40    0.60
   1   1   3    2.80    0.60
  -2  -1  -3 1125.69  220.58
  -2  -1  -3 1044.90   61.29
  -2  -1  -3 1066.29   63.99
   2   1   3 1213.48   66.49
   2   1   3 1475.15  241.68
   2   1   3 1135.79   66.39
  -3  -1  -3    5.10    1.00
   3   1   3    3.10    0.70
   3   1   3    3.80    0.90
  -4  -1  -3  320.07    7.90
   4   1   3  308.87    8.60
   4   1   3  314.37    8.60
   4   1   3  307.97    8.50
  -5  -1  -3  579.94   14.10
  -5  -1  -3  609.54   13.40
   5   1   3  493.05   13.40
   5   1   3  573.24   14.00
  -6  -1  -3  541.65   14.30
  -6  -1  -3  543.05   13.50
   6   1   3  519.65   14.10
   6   1   3  528.95   13.90
  -7  -1  -3  241.08    9.20
  -7  -1  -3  258.67    8.90
   7   1   3  231.98    9.00
   7   1   3  249.18    8.90
  -8  -1  -3   33.20    4.00
   8   1   3   32.10    3.80
   8   1   3   31.00    4.00
  -9  -1  -3   55.59    6.00
   9   1   3   59.29    4.60
   9   1   3   52.39    5.70
   7  -2  -3    3.50    1.80
   7  -2  -3    3.90    1.80
   7  -2  -3    4.20    1.20
  -7   2   3    4.70    2.00
   6  -2  -3   62.79    5.00
   6  -2  -3   59.29    3.20
   6  -2  -3   58.29    4.80
  -6   2   3   61.49    5.10
   5  -2  -3  214.68    6.30
   5  -2  -3  218.28    8.90
   5  -2  -3  196.98    8.60
  -5   2   3  216.58    9.20
   4  -2  -3  312.37   10.40
   4  -2  -3  318.87    7.70
   4  -2  -3  326.37   10.70
  -4   2   3  309.47   10.80
   3  -2  -3 1208.38   26.20
   3  -2  -3 1239.18   26.50
  -3   2   3 1223.68   26.80
   2  -2  -3  303.07    6.20
   2  -2  -3  302.77    9.00
  -2   2   3  307.87    9.20
   1  -2  -3   94.29    3.80
   1  -2  -3   96.99    4.00
  -1   2   3   80.89    1.90
   0  -2  -3   15.90    1.30
   0  -2  -3   18.60    1.60
   0   2   3   16.70    1.50
  -1  -2  -3  688.63  163.48
  -1  -2  -3  519.55   41.90
  -1  -2  -3  609.94   46.90
   1   2   3  641.04  163.78
   1   2   3  511.35   42.90
   1   2   3  528.55   44.80
  -2  -2  -3   40.20    2.20
  -2  -2  -3   40.80    1.80
   2   2   3   40.50    2.00
   2   2   3   42.50    1.80
  -3  -2  -3 2624.64  111.69
  -3  -2  -3 2310.97  281.97
  -3  -2  -3 2831.72  119.59
   3   2   3 2910.31  327.77
   3   2   3 2541.65  111.69
   3   2   3 2494.55  115.09
  -4  -2  -3  156.78    5.40
   4   2   3  165.08    5.30
   4   2   3  161.18    5.60
  -5  -2  -3  263.57    7.90
  -5  -2  -3  241.78    8.00
   5   2   3  304.97    8.70
   5   2   3  272.87    8.30
  -6  -2  -3  154.38    6.40
  -6  -2  -3  148.19    5.90
   6   2   3  170.78    6.50
   6   2   3  141.29    6.10
  -7  -2  -3  250.47    8.90
  -7  -2  -3  239.98    9.00
   7   2   3  258.57    9.20
   7   2   3  251.87    9.00
  -8  -2  -3    4.80    1.50
  -8  -2  -3    8.00    2.00
   8   2   3    6.80    1.90
   8   2   3    8.00    2.00
  -9  -2  -3   17.30    3.00
  -9  -2  -3   17.30    3.30
   9   2   3   17.50    3.20
   9   2   3   16.30    3.10
   7  -3  -3    3.40    1.90
   7  -3  -3    6.20    2.10
   7  -3  -3    3.10    1.00
  -7   3   3    6.40    2.40
   6  -3  -3   50.09    4.60
   6  -3  -3   51.99    2.80
   6  -3  -3   49.40    5.30
  -6   3   3   51.09    4.80
   5  -3  -3  382.56   12.90
   5  -3  -3  382.56    8.90
   5  -3  -3  357.46   12.50
   4  -3  -3  374.96   11.90
   4  -3  -3  352.56   11.60
   4  -3  -3  368.06    8.10
  -4   3   3  370.06   12.10
   3  -3  -3  185.48    7.20
   3  -3  -3  174.48    7.10
   3  -3  -3  182.38    4.10
  -3   3   3  174.08    7.30
   2  -3  -3 1443.56   80.99
   2  -3  -3 1331.87   82.39
  -2   3   3 1245.88  250.77
   1  -3  -3   36.40    2.60
  -1   3   3   40.30    2.70
   0  -3  -3  262.67    7.50
   0  -3  -3  246.68    6.30
   0   3   3  255.77    4.90
   0   3   3  243.88    7.30
  -1  -3  -3   94.99    2.70
  -1  -3  -3   86.39    3.70
   1   3   3   84.49    2.70
   1   3   3   87.09    2.70
  -2  -3  -3  858.71   58.19
  -2  -3  -3  803.82  195.98
  -2  -3  -3  867.71   60.49
   2   3   3  909.81  208.08
   2   3   3  876.81   59.19
   2   3   3  881.71   61.09
  -3  -3  -3  296.37    7.80
   3   3   3  292.77    6.80
   3   3   3  296.67    7.80
   3   3   3  286.47    7.60
  -4  -3  -3 3851.11  154.68
  -4  -3  -3 3630.04  154.68
  -4  -3  -3 3399.86  396.16
   4   3   3 3484.25  405.26
   4   3   3 3950.20  159.68
   4   3   3 3823.92  162.18
  -5  -3  -3  610.24   14.60
  -5  -3  -3  615.94   14.60
   5   3   3  607.94   14.60
   5   3   3  605.54   14.80
  -6  -3  -3  241.38    8.20
  -6  -3  -3  245.78    8.30
   6   3   3  234.78    8.10
   6   3   3  230.18    8.20
  -7  -3  -3  183.78    7.50
  -7  -3  -3  178.18    7.40
   7   3   3  187.08    7.60
   7   3   3  177.48    7.40
  -8  -3  -3   81.69    5.30
  -8  -3  -3   86.49    5.40
   8   3   3   89.69    5.50
   8   3   3   81.69    5.20
  -9  -3  -3  143.49    7.80
  -9  -3  -3  151.98    7.90
   9   3   3  156.88    7.80
   9   3   3  151.28    7.90
 -10  -3  -3  253.17   11.30
 -10  -3  -3  265.97   11.70
  10   3   3  279.27   11.40
  10   3   3  276.47   11.80
   6  -4  -3  325.87    7.90
   6  -4  -3  325.97   12.80
   6  -4  -3  297.07   12.00
  -6   4   3  319.17   12.80
   5  -4  -3  157.08    4.30
   5  -4  -3  151.18    7.80
   5  -4  -3  147.09    7.60
   4  -4  -3  776.02   20.10
   4  -4  -3  784.22   20.10
   4  -4  -3  766.72   14.60
  -4   4   3  793.82   20.50
   3  -4  -3   12.40    2.30
   3  -4  -3   15.80    2.60
  -3   4   3   14.70    2.60
   2  -4  -3   70.19    4.10
  -2   4   3   74.89    4.30
   1  -4  -3  134.29    5.50
  -1   4   3  120.59    5.30
   0  -4  -3  150.08    5.70
   0  -4  -3  159.18    4.60
   0   4   3  156.48    3.40
  -1  -4  -3 2138.59   94.39
  -1  -4  -3 2112.89  229.28
  -1  -4  -3 2134.69   92.09
   1   4   3 2156.28   95.69
   1   4   3 2070.49   95.29
   1   4   3 1981.40  236.78
  -2  -4  -3   16.70    1.40
  -2  -4  -3   17.20    1.60
   2   4   3   16.90    1.40
   2   4   3   17.10    0.80
  -3  -4  -3 1055.49  264.57
  -3  -4  -3 1032.90   70.89
   3   4   3 1128.79   74.69
   3   4   3  719.13  202.38
   3   4   3 1080.29   77.49
  -4  -4  -3  139.79    5.30
  -4  -4  -3  140.19    5.10
   4   4   3  139.09    4.30
   4   4   3  143.29    5.30
   4   4   3  131.49    5.00
  -5  -4  -3  345.87    9.70
  -5  -4  -3  347.07   10.30
   5   4   3  355.46   10.10
   5   4   3  345.17    9.70
  -6  -4  -3   70.99    4.10
  -6  -4  -3   78.19    4.50
   6   4   3   72.19    4.10
   6   4   3   75.19    4.40
  -7  -4  -3  465.35   13.60
  -7  -4  -3  461.05   13.30
   7   4   3  454.15   13.20
   7   4   3  460.75   13.60
  -8  -4  -3  351.76   11.80
   8   4   3  341.77   11.80
   8   4   3  335.87   11.50
  -9  -4  -3  101.69    6.30
  -9  -4  -3   84.89    5.90
   9   4   3   97.19    6.10
   9   4   3   83.59    5.70
 -10  -4  -3  416.36   15.10
  10   4   3  428.76   15.10
   6  -5  -3    1.40    1.30
   6  -5  -3    0.10    0.30
   6  -5  -3   -1.30    0.70
  -6   5   3   -0.90    0.70
   5  -5  -3  442.76    8.40
   5  -5  -3  427.16    8.30
   5  -5  -3  418.66   14.20
   5  -5  -3  449.95   15.00
  -5   5   3  423.56   14.70
   4  -5  -3  251.87    9.90
   4  -5  -3  255.97   10.10
  -4   5   3  262.67   12.70
   3  -5  -3  144.29    6.80
   3  -5  -3  147.99    6.80
  -3   5   3  153.58    7.10
   2  -5  -3  118.99    5.70
  -2   5   3  114.09    5.70
   1  -5  -3  348.57   10.50
   0  -5  -3    6.40    1.50
   0  -5  -3    4.00    0.80
   0  -5  -3    5.80    0.70
   0   5   3    6.00    0.70
  -1  -5  -3  425.56    8.30
  -1  -5  -3  421.86   11.50
  -1  -5  -3  428.16    9.30
   1   5   3  432.56    9.50
  -2  -5  -3 1039.50   70.29
  -2  -5  -3 1182.18   70.69
  -2  -5  -3  876.81  188.18
   2   5   3 1072.49   71.79
   2   5   3 1107.69   70.59
   2   5   3 1186.28  241.58
  -3  -5  -3  121.49    4.70
  -3  -5  -3  131.69    4.70
   3   5   3  125.19    4.70
   3   5   3  132.19    2.90
  -4  -5  -3   83.89    3.80
  -4  -5  -3   77.59    4.00
   4   5   3   83.69    4.00
   4   5   3   81.89    3.80
   4   5   3   79.69    2.80
  -5  -5  -3   83.19    4.00
  -5  -5  -3   77.79    4.30
   5   5   3   83.09    4.40
   5   5   3   73.79    3.90
  -6  -5  -3   18.90    2.60
  -6  -5  -3   22.00    3.00
  -6  -5  -3   23.00    3.00
   6   5   3   22.60    2.60
   6   5   3   19.80    2.60
  -7  -5  -3   23.70    3.00
  -7  -5  -3   34.00    4.10
   7   5   3   35.10    3.70
  -8  -5  -3  308.97   10.70
   8   5   3  251.67   10.30
   8   5   3  324.87   10.90
  -9  -5  -3   90.69    5.90
  -9  -5  -3   95.19    6.40
   9   5   3   83.79    5.90
   9   5   3   87.29    5.80
   5  -6  -3   25.70    4.10
   5  -6  -3   31.60    4.30
  -5   6   3   35.40    4.90
   4  -6  -3   24.40    3.50
   4  -6  -3   22.20    3.30
   3  -6  -3   63.49    4.50
   3  -6  -3   59.09    4.50
  -3   6   3   62.79    4.60
   2  -6  -3    1.90    1.10
   2  -6  -3    2.40    1.00
   1  -6  -3 1103.89   20.00
   1  -6  -3 1130.79   25.20
   0  -6  -3  475.45    9.90
   0  -6  -3  487.35   13.40
   0   6   3  481.95    9.90
  -1  -6  -3  778.12   14.30
  -1  -6  -3  797.92   16.00
  -1  -6  -3  782.32   18.70
  -2  -6  -3    3.60    0.90
   2   6   3    2.60    0.80
  -3  -6  -3  117.19    4.50
  -3  -6  -3  105.39    4.50
   3   6   3  116.99    4.70
  -4  -6  -3    5.60    1.30
  -4  -6  -3    4.00    1.00
   4   6   3    4.40    1.20
   4   6   3    5.50    0.70
  -5  -6  -3  325.67    9.20
  -5  -6  -3  311.17    9.90
   5   6   3  311.07    9.80
   5   6   3  305.37    9.10
  -6  -6  -3   32.00    2.70
  -6  -6  -3   36.50    3.30
   6   6   3   35.00    2.90
   6   6   3   37.50    3.30
  -7  -6  -3  156.78    6.80
  -7  -6  -3  161.48    7.60
   7   6   3  165.98    6.90
  -8  -6  -3  348.27   12.60
  -8  -6  -3  334.57   11.40
   8   6   3  337.17   11.50
  -9  -6  -3   64.19    5.40
  -9  -6  -3   60.89    4.80
   9   6   3   67.19    5.00
   9   6   3   56.59    4.90
   5  -7  -3    0.50    1.00
   5  -7  -3    0.50    1.20
  -5   7   3    0.00    0.70
   4  -7  -3  200.28    9.10
   4  -7  -3  194.88    9.30
  -4   7   3  190.48    9.20
   3  -7  -3    1.20    1.10
   3  -7  -3   -0.50    0.50
   2  -7  -3   40.20    4.40
   2  -7  -3   43.00    4.60
   1  -7  -3   31.10    1.50
   1  -7  -3   24.20    3.10
   0  -7  -3  487.45   10.50
   0  -7  -3  484.75   13.90
  -1  -7  -3    4.00    0.90
  -1  -7  -3    4.70    0.50
  -1  -7  -3    4.50    1.50
  -1  -7  -3    4.70    0.40
   1   7   3    4.80    1.00
  -2  -7  -3  596.64   13.80
   2   7   3  609.54   14.10
  -3  -7  -3  331.47    9.30
  -3  -7  -3  356.66    9.90
   3   7   3  354.26   10.00
  -4  -7  -3    2.80    0.90
  -4  -7  -3    4.40    1.30
   4   7   3    2.00    0.90
  -5  -7  -3  552.24   13.80
  -5  -7  -3  564.04   15.10
   5   7   3  565.34   11.70
   5   7   3  561.64   15.00
   5   7   3  560.94   11.90
  -6  -7  -3  543.05   15.50
  -6  -7  -3  543.55   14.10
   6   7   3  563.94   15.50
   6   7   3  531.05   14.10
   6   7   3  545.75   12.80
  -7  -7  -3   92.79    5.80
  -7  -7  -3   88.89    4.90
   7   7   3   82.19    5.40
   7   7   3   96.69    5.20
  -8  -7  -3  348.57   12.90
  -8  -7  -3  329.17   12.60
  -8  -7  -3  322.17   11.10
   8   7   3  338.57   11.40
   8   7   3  313.87   12.00
  -9  -7  -3  217.38   10.50
  -9  -7  -3  226.78    9.50
   9   7   3  225.48    9.50
   9   7   3  219.78   10.30
   4  -8  -3   69.39    5.50
   4  -8  -3   60.39    5.10
   3  -8  -3  377.26   13.20
   3  -8  -3  390.26   13.40
   2  -8  -3  442.86    8.50
   2  -8  -3  440.76   14.00
   2  -8  -3  433.16   13.70
   1  -8  -3  433.66   13.80
   1  -8  -3  446.46    9.60
   1  -8  -3  448.36   11.20
   0  -8  -3  202.48    5.80
   0  -8  -3  203.48    5.60
   0  -8  -3  199.28    8.40
  -1  -8  -3  101.59    4.10
  -1  -8  -3  102.19    5.70
   1   8   3   92.79    4.00
  -2  -8  -3   64.09    3.50
   2   8   3   69.69    3.70
  -3  -8  -3  296.37    9.10
  -3  -8  -3  293.27    8.50
   3   8   3  281.47    9.10
  -4  -8  -3   33.10    3.50
  -4  -8  -3   31.10    2.50
   4   8   3   35.90    3.00
  -5  -8  -3  486.75   14.30
  -5  -8  -3  519.15   13.00
   5   8   3  527.05   14.60
   5   8   3  521.45    9.70
   5   8   3  499.75    9.70
  -6  -8  -3  409.76   11.60
  -6  -8  -3  404.86   13.10
   6   8   3  414.76    9.80
  -7  -8  -3  155.88    6.70
  -7  -8  -3  151.78    8.00
  -7  -8  -3  145.69    7.60
   7   8   3  156.98    7.80
   7   8   3  150.98    6.70
   7   8   3  153.18    5.90
  -8  -8  -3  267.17   11.40
  -8  -8  -3  273.47   11.70
  -8  -8  -3  261.97    9.70
   8   8   3  278.67   11.40
   8   8   3  289.67   10.30
   8   8   3  279.77    9.30
  -9  -8  -3   54.69    4.50
  -9  -8  -3   62.39    6.90
  -9  -8  -3   55.69    6.20
   9   8   3   52.79    4.50
   9   8   3   55.69    4.40
   9   8   3   54.99    6.20
   3  -9  -3  234.68   10.30
   3  -9  -3  235.88   10.30
   3  -9  -3  229.38    8.90
   2  -9  -3  186.88    8.70
   2  -9  -3  169.18    6.80
   2  -9  -3  171.08    8.20
   2  -9  -3  174.68    4.20
   1  -9  -3  365.06    9.80
   1  -9  -3  354.76    8.50
   1  -9  -3  370.96   12.10
   1  -9  -3  362.86   12.80
   0  -9  -3  576.64   13.10
   0  -9  -3  578.74   12.30
   0  -9  -3  589.04   17.10
  -1  -9  -3   46.30    2.90
  -1  -9  -3   45.30    4.00
   1   9   3   50.89    3.00
  -2  -9  -3  187.98    6.70
   2   9   3  175.58    6.60
  -3  -9  -3    0.60    0.60
  -3  -9  -3    0.40    0.60
   3   9   3    0.60    0.80
  -4  -9  -3  409.36   11.00
  -4  -9  -3  396.26   12.20
   4   9   3  424.16   12.60
  -5  -9  -3   58.49    4.30
  -5  -9  -3   54.79    3.40
  -6  -9  -3  651.03   16.00
  -6  -9  -3  652.33   18.20
   6   9   3  634.04   18.10
   6   9   3  647.44   12.70
   6   9   3  647.74   12.80
  -7  -9  -3    0.60    0.90
  -7  -9  -3    0.80    0.80
   7   9   3    0.50    0.80
   7   9   3    1.20    0.70
  -8  -9  -3    6.30    2.00
  -8  -9  -3   10.50    2.90
  -8  -9  -3    3.60    1.40
   8   9   3    8.80    2.60
   8   9   3    7.10    1.60
   2 -10  -3  159.98    4.20
   2 -10  -3  168.98    8.70
   2 -10  -3  171.38    6.80
   2 -10  -3  162.48    8.20
   1 -10  -3   34.70    2.50
   1 -10  -3   37.30    2.20
   1 -10  -3   36.30    4.80
   1 -10  -3   41.50    4.60
   0 -10  -3    6.60    1.30
   0 -10  -3    4.00    0.80
   0 -10  -3    4.30    0.90
   0 -10  -3    7.30    2.20
  -1 -10  -3  267.67    8.40
  -1 -10  -3  283.77   11.20
  -2 -10  -3    7.40    1.60
  -2 -10  -3    7.30    1.60
  -2 -10  -3    9.90    2.50
   2  10   3    6.80    1.60
  -3 -10  -3  497.75   12.80
  -3 -10  -3  478.45   13.60
   3  10   3  486.95   13.90
  -4 -10  -3    2.20    1.00
  -4 -10  -3    1.40    0.90
   4  10   3    0.30    0.90
  -5 -10  -3  411.06   11.10
  -5 -10  -3  398.46   12.90
   5  10   3  364.36   12.70
  -6 -10  -3   46.40    5.00
  -6 -10  -3   42.80    3.20
   6  10   3   43.30    5.10
  -7 -10  -3   96.79    6.50
  -7 -10  -3   92.49    5.00
   7  10   3   87.19    3.00
   7  10   3   88.09    6.10
   7  10   3   83.49    3.00
   1 -11  -3    2.20    1.50
   1 -11  -3    3.40    1.60
   1 -11  -3    1.10    0.70
   1 -11  -3    2.60    0.90
   0 -11  -3   25.60    4.10
   0 -11  -3   24.70    2.60
   0 -11  -3   20.90    1.30
   0 -11  -3   18.10    3.00
   0 -11  -3   20.60    1.30
  -1 -11  -3   50.79    3.40
  -1 -11  -3   53.09    6.10
  -2 -11  -3   37.40    4.50
  -2 -11  -3   47.40    3.50
  -2 -11  -3   45.50    3.40
   2  11   3   48.20    3.60
  -3 -11  -3   -0.40    0.60
  -3 -11  -3   -0.20    0.50
   3  11   3    2.00    1.30
  -4 -11  -3  193.38    8.40
  -4 -11  -3  211.48    7.30
  -5 -11  -3    0.70    1.00
  -5 -11  -3    1.50    0.90
   5  11   3    1.40    1.10
  -6 -11  -3   13.40    2.20
  -6 -11  -3    9.80    2.50
   6  11   3   14.20    2.80
  -1 -12  -3  258.97    9.80
  -1 -12  -3  276.37   12.00
  -1 -12  -3  268.77    9.10
  -2 -12  -3   28.10    3.20
  -2 -12  -3   32.90    5.00
  -2 -12  -3   28.50    3.50
  -3 -12  -3   98.99    5.80
  -3 -12  -3   98.29    4.90
   3  12   3   96.29    5.80
  -4 -12  -3   70.59    4.00
  -4 -12  -3   76.39    5.30
   4  12   3   71.39    5.30
  -5 -12  -3   69.39    3.90
  -5 -12  -3   66.99    5.20
   5  12   3   63.89    5.20
   3  10  -4  131.99    8.00
  -3 -10   4  140.79    8.10
  -3 -10   4  137.79    7.30
   2  10  -4    0.70    0.80
  -2 -10   4    1.00    1.10
  -2 -10   4    1.10    0.90
  -2 -10   4    0.60    0.90
   1  10  -4  324.77   11.00
  -1 -10   4  339.77   11.00
  -1 -10   4  341.97   12.80
  -1 -10   4  316.77   11.00
   0  10  -4   54.39    4.30
   0 -10   4   61.89    4.00
   0 -10   4   64.09    5.10
   0 -10   4   63.39    4.40
   1 -10   4   19.30    2.50
   1 -10   4   18.50    3.20
   1 -10   4   20.00    2.60
   1 -10   4   16.10    2.80
   2 -10   4   58.79    4.90
   2 -10   4   59.19    3.50
   2 -10   4   53.59    4.30
   2 -10   4   55.69    2.70
   5   9  -4  171.48    8.40
   5   9  -4  181.98    9.50
  -5  -9   4  168.48    9.00
  -5  -9   4  197.28    9.80
   4   9  -4  110.19    7.10
  -4  -9   4  118.19    6.90
  -4  -9   4  113.29    7.10
   3   9  -4   26.80    3.40
   3   9  -4   25.30    3.80
  -3  -9   4   33.20    4.10
  -3  -9   4   32.50    4.50
   2   9  -4   18.30    2.80
  -2  -9   4   20.00    3.00
  -2  -9   4   19.50    2.90
  -2  -9   4   23.90    3.70
   1   9  -4   85.19    5.00
  -1  -9   4   67.79    5.20
  -1  -9   4   92.89    5.00
  -1  -9   4   87.89    5.10
   0   9  -4   29.70    3.40
   0  -9   4   27.90    2.60
   0  -9   4   22.80    3.50
   0  -9   4   33.30    3.80
  -1   9  -4  190.68    8.10
   1  -9   4  222.78    8.50
   1  -9   4  204.68    9.00
   1  -9   4  212.88    7.10
   1  -9   4  200.68    7.10
   2  -9   4   26.80    3.50
   2  -9   4   25.70    1.90
   2  -9   4   23.90    3.40
   2  -9   4   28.10    2.30
   3  -9   4  177.08    5.80
   3  -9   4  173.38    6.40
   3  -9   4  182.68    8.30
   3  -9   4  186.48    8.50
   4  -9   4   26.80    3.20
   4  -9   4   27.10    1.90
   4  -9   4   34.50    4.30
   4  -9   4   31.20    4.20
  -6  -8   4   48.50    5.60
   5   8  -4    0.80    1.00
   5   8  -4    0.20    0.90
  -5  -8   4    0.30    1.00
  -5  -8   4    0.30    1.10
   4   8  -4   30.80    3.90
  -4  -8   4   29.40    4.00
  -4  -8   4   38.20    4.70
   3   8  -4  195.28    8.10
  -3  -8   4  200.38    8.40
  -3  -8   4  198.68    9.00
  -3  -8   4  195.98    8.30
   2   8  -4  163.68    7.90
   2   8  -4  149.88    6.60
  -2  -8   4  144.39    6.80
  -2  -8   4  146.39    6.60
  -2  -8   4  144.99    7.40
   1   8  -4   37.20    3.20
  -1  -8   4   40.00    3.30
  -1  -8   4   41.40    4.70
  -1  -8   4   44.90    3.20
   0   8  -4  683.03   17.40
   0  -8   4  657.43   17.10
   0  -8   4  694.93   16.20
   0  -8   4  710.93   18.80
  -1   8  -4  185.88    7.70
   1  -8   4  200.48    6.40
   1  -8   4  190.78    8.20
   1  -8   4  198.38    4.50
   1  -8   4  189.38    7.60
   2  -8   4  341.77    8.60
   2  -8   4  355.66    9.00
   2  -8   4  341.37   11.60
   2  -8   4  320.57   11.00
   3  -8   4   20.70    1.70
   3  -8   4   22.40    2.50
   3  -8   4   23.10    3.40
   3  -8   4   19.90    3.10
   4  -8   4  285.57    7.40
   4  -8   4  286.37    9.50
   4  -8   4  326.67   11.60
   4  -8   4  293.57   10.90
   5  -8   4   53.69    2.50
   5  -8   4   58.49    4.60
   5  -8   4   57.99    4.90
   5  -8   4   59.09    4.30
   6   7  -4  328.27    8.80
   6   7  -4  333.97   12.90
   6   7  -4  353.26   12.80
  -6  -7   4  365.76   13.30
  -6  -7   4  321.87   13.20
   5   7  -4    0.00    0.70
   5   7  -4    0.40    0.70
   5   7  -4    1.40    0.50
  -5  -7   4   -0.40    0.80
  -5  -7   4    1.60    1.20
   4   7  -4   78.89    5.40
   4   7  -4   66.99    4.70
  -4  -7   4   79.79    5.40
  -4  -7   4   74.89    5.20
   3   7  -4   50.49    3.80
  -3  -7   4   48.70    3.90
  -3  -7   4   49.40    4.20
  -3  -7   4   50.09    3.90
   2   7  -4   49.99    3.60
  -2  -7   4   41.60    3.40
  -2  -7   4   44.20    3.80
  -2  -7   4   45.90    3.40
   1   7  -4  410.86   11.80
  -1  -7   4  400.76   12.70
  -1  -7   4  392.46   11.70
  -1  -7   4  422.16   11.30
   0   7  -4    3.60    1.20
   0  -7   4    5.40    1.20
   0  -7   4    5.50    1.70
   0  -7   4    3.00    1.10
  -1   7  -4  408.76   12.20
   1  -7   4  415.06    8.70
   1  -7   4  414.36   10.20
   1  -7   4  432.16   12.20
   1  -7   4  444.86   13.00
  -2   7  -4  182.68    7.50
   2  -7   4  183.08    5.50
   2  -7   4  185.68    7.70
   2  -7   4  182.28    7.40
   2  -7   4  181.38    5.50
   3  -7   4  403.86   12.60
   3  -7   4  383.86   12.40
   3  -7   4  424.96    9.30
   3  -7   4  419.36   10.90
   4  -7   4   10.50    1.90
   4  -7   4    8.60    2.00
   4  -7   4    9.00    2.10
   4  -7   4    9.20    1.10
   5  -7   4  113.89    3.80
   5  -7   4  110.09    6.60
   5  -7   4  115.99    6.00
   5  -7   4  124.89    6.50
   6  -7   4   96.99    6.60
   6  -7   4   97.59    6.00
   6  -7   4  105.69    6.20
   6  -7   4  100.29    3.70
   6   6  -4   -0.10    0.60
   6   6  -4    2.80    1.50
   6   6  -4    0.90    1.10
  -6  -6   4    0.50    1.10
  -6  -6   4    0.80    1.10
   5   6  -4  505.05   15.40
   5   6  -4  509.15   11.70
  -5  -6   4  474.75   15.00
  -5  -6   4  478.95   15.60
   4   6  -4   41.40    3.60
   4   6  -4   35.50    4.10
   4   6  -4   35.40    1.80
  -4  -6   4   40.80    3.70
  -4  -6   4   44.20    4.70
   3   6  -4  660.53   17.30
   3   6  -4  671.43   17.90
  -3  -6   4  681.93   18.00
  -3  -6   4  689.43   17.60
   2   6  -4  534.15   14.30
  -2  -6   4  545.75   15.10
  -2  -6   4  543.95   14.60
  -2  -6   4  523.05   13.90
   1   6  -4   34.90    3.10
   1   6  -4   40.10    3.00
  -1  -6   4   34.50    2.60
  -1  -6   4   38.60    3.30
  -1  -6   4   30.60    2.70
   0   6  -4  437.56   12.10
   0  -6   4  447.86   10.80
   0  -6   4  445.86   12.80
   0  -6   4  418.76   11.80
  -1   6  -4  556.84   14.60
   1  -6   4  565.64   11.30
   1  -6   4  554.94   14.40
   1  -6   4  563.04   12.30
   1  -6   4  573.24   15.00
  -2   6  -4   74.29    4.40
   2  -6   4   69.99    3.10
   2  -6   4   78.49    4.40
   2  -6   4   68.29    2.70
   2  -6   4   72.29    4.40
  -3   6  -4  105.19    4.70
   3  -6   4   98.79    5.20
   3  -6   4  101.49    3.10
   3  -6   4  103.09    4.40
   3  -6   4  101.19    5.40
  -4   6  -4  398.06   11.80
   4  -6   4  416.16   12.90
   4  -6   4  395.36    8.50
   4  -6   4  403.26   12.40
   4  -6   4  415.76   11.50
  -5   6  -4  219.98    8.70
   5  -6   4  207.18    8.20
   5  -6   4  221.38    5.60
   5  -6   4  219.78    9.30
   6  -6   4  124.49    6.60
   6  -6   4  127.59    4.30
   6  -6   4  132.49    7.50
   7  -6   4   12.70    2.90
   7  -6   4   10.60    2.60
   7   5  -4    0.00    0.70
   7   5  -4    1.50    1.40
   7   5  -4   -0.10    0.80
  -7  -5   4   -0.10    0.90
  -7  -5   4    0.50    1.00
   6   5  -4   26.10    3.60
   6   5  -4   24.50    2.90
   6   5  -4   23.00    3.70
  -6  -5   4   29.40    4.50
  -6  -5   4   31.90    4.30
   5   5  -4    5.20    1.30
   5   5  -4    6.20    1.90
  -5  -5   4    6.30    2.00
  -5  -5   4    7.70    2.00
   4   5  -4  111.99    4.10
   4   5  -4  112.19    6.00
   4   5  -4  116.09    6.00
  -4  -5   4  106.29    5.90
  -4  -5   4  100.29    5.60
   3   5  -4  337.47   11.00
   3   5  -4  359.36    7.90
   3   5  -4  348.37   11.20
  -3  -5   4  374.56   11.30
  -3  -5   4  358.76   11.30
   2   5  -4  292.07    9.60
   2   5  -4  285.87    9.20
  -2  -5   4  291.67    9.10
  -2  -5   4  284.27    9.40
  -2  -5   4  265.67    9.30
   1   5  -4  430.66   12.40
   1   5  -4  471.25   12.20
  -1  -5   4  451.95   12.10
  -1  -5   4  410.16   12.10
  -1  -5   4  445.56   11.30
   0   5  -4   26.40    2.40
   0  -5   4   38.40    2.90
   0  -5   4   25.80    2.30
   0  -5   4   26.10    1.90
  -1   5  -4  378.96    8.30
  -1   5  -4  368.96   10.70
   1  -5   4  372.76   10.60
   1  -5   4  372.06   10.90
   1  -5   4  377.36    8.20
   1  -5   4  387.46    8.60
  -2   5  -4    6.40    1.50
  -2   5  -4    6.00    1.10
   2  -5   4    5.40    1.50
   2  -5   4    3.90    1.20
   2  -5   4    4.40    0.90
   2  -5   4    5.30    0.70
   2  -5   4    5.40    0.70
  -3   5  -4  255.47    7.60
   3  -5   4  238.98    7.30
   3  -5   4  231.48    8.30
   3  -5   4  238.28    8.50
   3  -5   4  249.18    5.10
  -4   5  -4   18.60    2.60
   4  -5   4   17.20    2.30
   4  -5   4   17.20    1.00
   4  -5   4   20.00    2.90
  -5   5  -4  215.98    8.40
   5  -5   4  199.78    8.60
   5  -5   4  216.88    8.10
   5  -5   4  212.28    5.30
   6  -5   4  101.99    6.30
   6  -5   4   97.49    3.70
   6  -5   4   97.69    5.70
  -7   5  -4  240.48   10.50
   7  -5   4  249.38   11.00
   7  -5   4  256.37   10.40
   7   4  -4   49.30    4.40
   7   4  -4   51.29    4.10
   7   4  -4   60.99    5.40
  -7  -4   4   39.10    5.00
  -7  -4   4   48.40    5.20
   6   4  -4    0.70    0.90
   6   4  -4    2.10    1.00
   6   4  -4    1.90    1.20
  -6  -4   4    1.10    1.00
  -6  -4   4    2.30    1.50
   5   4  -4  274.87    8.60
   5   4  -4  265.07    9.60
  -5  -4   4  271.67    9.80
  -5  -4   4  258.97   10.40
   4   4  -4  193.68    7.60
   4   4  -4  181.28    7.80
   4   4  -4  184.28    6.10
  -4  -4   4  193.78    8.00
  -4  -4   4  185.98    7.50
   3   4  -4   25.80    3.30
   3   4  -4   18.80    2.60
   3   4  -4   21.70    1.60
  -3  -4   4   19.00    2.60
  -3  -4   4   24.60    3.10
   2   4  -4  353.26   10.30
   2   4  -4  329.77    7.40
   2   4  -4  318.47    9.90
  -2  -4   4  343.27   10.40
  -2  -4   4  343.47   10.20
  -2  -4   4  347.27    9.90
   1   4  -4   43.60    1.50
   1   4  -4   42.40    3.00
   1   4  -4   42.70    1.50
   1   4  -4   48.50    3.10
  -1  -4   4   46.20    3.20
  -1  -4   4   38.20    2.80
  -1  -4   4   44.80    2.70
   0   4  -4   17.90    0.90
   0   4  -4   19.20    2.30
   0  -4   4   16.70    1.50
   0  -4   4   22.70    2.60
   0  -4   4   15.30    2.10
  -1   4  -4   24.20    1.40
  -1   4  -4   18.40    2.20
   1  -4   4   23.60    1.40
   1  -4   4   23.60    2.10
   1  -4   4   25.80    2.30
   1  -4   4   22.60    1.40
  -2   4  -4  368.96   10.60
  -2   4  -4  377.16    9.00
   2  -4   4  379.66    7.10
   2  -4   4  367.86    8.80
   2  -4   4  366.06    7.10
   2  -4   4  374.16   10.50
   2  -4   4  359.96   10.30
  -3   4  -4  751.22   18.20
  -3   4  -4  765.32   16.90
   3  -4   4  780.62   18.30
   3  -4   4  770.22   16.70
  -4   4  -4  775.62   18.00
   4  -4   4  783.12   19.20
   4  -4   4  768.12   17.70
  -5   4  -4  340.87   10.70
   5  -4   4  328.57   10.30
   5  -4   4  318.57   11.00
   6  -4   4   91.29    5.40
   6  -4   4  108.69    6.30
  -7   4  -4    7.40    1.40
  -7   4  -4    6.10    2.00
   7  -4   4    6.70    2.10
   7  -4   4    6.90    2.10
  -8   4  -4  185.78    7.00
  -8   4  -4  200.88    9.80
   8  -4   4  197.18    9.00
   8  -4   4  193.88    9.40
   8  -4   4  203.78   10.20
   7   3  -4    9.30    2.80
   7   3  -4    3.60    1.60
   7   3  -4    4.00    1.60
   7   3  -4    2.30    1.60
  -7  -3   4    9.50    2.40
  -7  -3   4    3.10    1.60
   6   3  -4   79.89    4.90
   6   3  -4   59.49    4.20
   6   3  -4   63.69    5.10
   6   3  -4   64.19    5.20
  -6  -3   4   70.89    4.70
  -6  -3   4   70.79    5.40
   5   3  -4  245.28   10.20
   5   3  -4  272.27    8.80
   5   3  -4  263.67    9.20
  -5  -3   4  279.57    9.50
  -5  -3   4  263.77   10.40
   4   3  -4  790.82   20.10
   4   3  -4  783.52   17.70
   4   3  -4  779.22   18.70
   4   3  -4  793.92   20.00
  -4  -3   4  761.72   19.80
  -4  -3   4  828.92   19.00
   3   3  -4  213.38    8.00
   3   3  -4  216.78    8.00
   3   3  -4  213.18    7.40
   3   3  -4  212.38    6.40
  -3  -3   4  213.38    7.40
  -3  -3   4  211.68    7.80
   2   3  -4   83.49    4.30
   2   3  -4   97.99    3.50
   2   3  -4   97.09    4.50
   2   3  -4   97.49    4.70
  -2  -3   4   92.79    4.40
  -2  -3   4  100.19    4.90
  -2  -3   4  100.69    4.60
   1   3  -4  150.48    5.60
   1   3  -4  145.09    5.70
   1   3  -4  148.89    5.30
  -1  -3   4  149.88    5.60
  -1  -3   4  149.39    5.80
  -1  -3   4  150.78    5.30
   0   3  -4    9.00    0.80
   0   3  -4    6.50    1.30
   0  -3   4    9.60    1.60
   0  -3   4    9.90    1.30
   0  -3   4    6.30    1.20
  -1   3  -4  179.18    4.70
  -1   3  -4  159.18    5.90
   1  -3   4  168.68    6.00
   1  -3   4  180.28    4.40
   1  -3   4  170.38    6.00
   1  -3   4  180.78    4.70
  -2   3  -4   35.40    2.10
  -2   3  -4   36.00    2.60
   2  -3   4   31.40    1.90
   2  -3   4   36.00    2.60
  -3   3  -4  231.28    7.80
  -3   3  -4  218.48    6.70
   3  -3   4  221.38    6.70
   3  -3   4  223.28    7.60
  -4   3  -4  277.37    8.70
   4  -3   4  301.57    8.80
   4  -3   4  307.77    9.70
  -5   3  -4  467.35    9.90
  -5   3  -4  453.75   12.90
   5  -3   4  454.95   12.70
   5  -3   4  485.45   13.80
  -6   3  -4  217.88    8.60
  -6   3  -4  235.18    6.50
   6  -3   4  204.38    8.80
   6  -3   4  209.78    8.30
  -7   3  -4   35.10    2.50
  -7   3  -4   25.40    3.60
   7  -3   4   29.70    3.70
   7  -3   4   36.30    4.60
  -8   3  -4   83.49    6.10
  -8   3  -4   83.09    4.50
   8  -3   4   84.99    6.30
   8  -3   4   92.39    6.20
   8  -3   4   77.19    5.30
   7   2  -4  497.45   17.10
   7   2  -4  479.45   14.20
   7   2  -4  452.75   14.80
   7   2  -4  482.45   16.90
  -7  -2   4  471.15   16.60
  -7  -2   4  479.75   14.50
   6   2  -4  239.38    8.80
   6   2  -4  227.28   10.30
   6   2  -4  244.28    9.30
   6   2  -4  253.77   10.80
  -6  -2   4  244.98    9.00
   5   2  -4  491.65   13.50
   5   2  -4  461.95   12.90
   5   2  -4  473.95   14.90
  -5  -2   4  487.45   13.30
   4   2  -4  799.82   20.40
   4   2  -4  822.52   18.70
   4   2  -4  826.32   20.50
   4   2  -4  798.62   18.60
  -4  -2   4  828.62   20.50
  -4  -2   4  828.42   18.80
   3   2  -4  593.44   15.50
   3   2  -4  593.74   14.20
   3   2  -4  595.24   13.70
   3   2  -4  588.44   15.30
  -3  -2   4  589.94   14.10
  -3  -2   4  569.14   15.10
   2   2  -4  212.98    6.70
   2   2  -4  207.18    6.00
   2   2  -4  208.98    7.30
   2   2  -4  199.98    7.00
  -2  -2   4  200.18    7.00
  -2  -2   4  200.88    7.40
  -2  -2   4  201.68    6.50
   1   2  -4 1068.99   22.00
   0   2  -4  441.26    9.30
   0  -2   4  434.46   10.70
   0  -2   4  419.16   10.80
   0  -2   4  438.56    9.90
  -1   2  -4    0.70    0.50
  -1   2  -4    0.30    0.30
  -1   2  -4    0.50    0.30
   1  -2   4    0.40    0.50
   1  -2   4    0.10    0.40
   1  -2   4    1.00    0.40
  -2   2  -4 4011.90  329.47
  -2   2  -4 3785.22  140.69
   2  -2   4 3918.91  148.69
   2  -2   4 4295.67  344.37
   2  -2   4 3775.72  142.99
  -3   2  -4   64.99    3.60
  -3   2  -4   61.99    3.10
   3  -2   4   59.59    3.00
   3  -2   4   57.79    3.40
  -4   2  -4  554.94   13.50
  -4   2  -4  555.54   10.40
   4  -2   4  546.85   13.40
  -5   2  -4   36.70    2.90
  -5   2  -4   32.80    1.80
   5  -2   4   33.50    3.00
   5  -2   4   29.30    2.60
  -6   2  -4  302.57   10.20
  -6   2  -4  300.57    7.90
   6  -2   4  282.07    9.90
   6  -2   4  292.97   10.50
  -7   2  -4   34.70    2.60
   7  -2   4   42.90    4.80
   7  -2   4   35.30    4.40
  -8   2  -4  252.07   10.70
  -8   2  -4  259.07    8.70
   8  -2   4  260.67   10.20
   8  -2   4  252.27   10.90
   8  -2   4  269.97   10.90
  -9   2  -4  256.07    9.50
  -9   2  -4  255.27   11.60
   9  -2   4  260.57   11.50
   9  -2   4  260.77   10.60
   9  -2   4  268.07   12.00
   7   1  -4   12.30    2.60
   7   1  -4   11.40    2.80
   7   1  -4   12.90    2.30
   7   1  -4    9.40    2.60
  -7  -1   4    7.60    2.30
  -7  -1   4   11.70    2.40
   6   1  -4  441.96   12.50
   6   1  -4  439.66   15.10
   6   1  -4  442.26   13.80
   6   1  -4  447.66   15.10
  -6  -1   4  445.66   12.80
  -6  -1   4  422.26   14.90
   5   1  -4  117.89    6.60
   5   1  -4  118.39    5.90
   5   1  -4  127.59    5.40
  -5  -1   4  114.89    5.30
   4   1  -4  453.35   13.70
   4   1  -4  447.26   13.50
   4   1  -4  451.85   11.60
   4   1  -4  452.65   12.40
  -4  -1   4  460.55   13.70
  -4  -1   4  456.75   11.80
   3   1  -4   99.49    5.10
   3   1  -4  100.49    4.20
   3   1  -4   98.29    5.10
   3   1  -4  100.79    4.50
  -3  -1   4   93.29    4.10
  -3  -1   4  113.79    5.40
   2   1  -4    3.00    1.00
   2   1  -4    3.80    1.10
   2   1  -4    4.40    1.00
  -2  -1   4    3.30    1.10
  -2  -1   4    4.10    0.90
   1   1  -4  773.52   16.80
   1   1  -4  769.22   16.20
   1   1  -4  793.52   17.40
  -1  -1   4  751.92   17.40
  -1  -1   4  774.02   16.80
   0   1  -4  313.17    8.40
   0   1  -4  307.57    7.70
   0  -1   4  311.17    7.70
   0  -1   4  297.37    8.30
   0  -1   4  318.47    8.00
  -1   1  -4  912.81   65.59
  -1   1  -4  914.61   68.39
   1  -1   4  897.71   65.29
   1  -1   4  845.62   67.49
  -2   1  -4   31.60    1.00
  -2   1  -4   31.40    1.90
  -2   1  -4   31.20    2.20
   2  -1   4   27.50    2.10
   2  -1   4   32.70    1.90
  -3   1  -4 1719.93  291.67
  -3   1  -4 1456.45   96.59
  -3   1  -4 1337.07   97.29
   3  -1   4 1573.84   88.79
   3  -1   4 1514.65   84.09
  -4   1  -4    0.80    0.30
  -4   1  -4   -0.30    0.40
   4  -1   4    1.00    0.70
   4  -1   4    0.10    0.40
  -5   1  -4  746.53   17.60
  -5   1  -4  744.93   15.20
   5  -1   4  726.13   17.40
   5  -1   4  758.72   18.10
  -6   1  -4    0.30    0.70
  -6   1  -4   -0.20    0.40
   6  -1   4    0.40    0.70
   6  -1   4    0.40    0.70
  -7   1  -4   52.59    3.30
   7  -1   4   53.89    4.30
   7  -1   4   46.60    3.70
   7  -1   4   42.00    3.70
  -8   1  -4  144.19    6.20
  -8   1  -4  126.19    7.20
   8  -1   4  129.19    7.10
   8  -1   4  126.69    6.70
   8  -1   4  139.69    7.70
  -9   1  -4  207.28   10.10
  -9   1  -4  221.68    8.80
   9  -1   4  215.98   10.10
   9  -1   4  219.88   10.60
   9  -1   4  209.98    9.40
   7   0  -4  390.36   11.50
   7   0  -4  372.46   14.50
   7   0  -4  402.86   14.10
   7   0  -4  347.17   14.40
  -7   0   4  403.36   15.20
   6   0  -4   24.20    3.50
   6   0  -4   24.50    3.50
   6   0  -4   26.70    2.90
  -6   0   4   35.50    4.70
  -6   0   4   25.40    3.00
   5   0  -4  162.58    7.30
   5   0  -4  155.98    7.70
   5   0  -4  167.18    6.00
  -5   0   4  159.98    6.00
   4   0  -4    9.00    2.00
   4   0  -4   10.50    1.50
   4   0  -4   11.10    2.30
   4   0  -4    9.10    1.90
  -4   0   4   12.40    1.80
  -4   0   4   13.10    2.50
   3   0  -4  420.26   10.10
   3   0  -4  435.46   11.60
   3   0  -4  415.06   12.20
   3   0  -4  430.76   12.50
  -3   0   4  420.66   10.20
  -3   0   4  416.36   12.30
   2   0  -4   13.00    2.10
   2   0  -4   12.60    1.50
   2   0  -4   10.00    1.80
  -2   0   4   10.90    1.40
  -2   0   4   10.90    1.90
   1   0  -4  112.89    4.70
   1   0  -4  121.19    4.60
  -1   0   4  107.19    3.70
  -1   0   4  109.19    4.70
  -1   0   4  105.89    4.40
   0   0  -4 1432.26   91.89
   0   0  -4 1315.37   80.39
   0   0  -4 1354.16   78.19
   0   0  -4 1407.26   87.29
   0   0   4 1113.29  237.68
   0   0   4 2295.67  474.55
  -1   0  -4   41.50    2.30
  -1   0  -4   42.40    2.20
  -1   0  -4   42.70    2.00
   1   0   4   36.80    2.20
   1   0   4   45.20    2.00
  -2   0  -4  471.75  120.79
  -2   0  -4  877.11   63.49
  -2   0  -4  807.12   58.69
   2   0   4 1110.39  252.97
   2   0   4  729.43   58.19
  -3   0  -4   44.50    2.60
  -3   0  -4   45.20    2.50
   3   0   4   40.90    2.50
   3   0   4   44.80    2.50
  -4   0  -4    2.00    0.60
  -4   0  -4    1.60    0.70
   4   0   4    2.20    0.80
   4   0   4    1.60    0.70
  -5   0  -4   16.90    1.50
  -5   0  -4   16.70    2.20
   5   0   4   19.90    2.40
   5   0   4   15.50    2.30
  -6   0  -4  724.43   16.30
  -6   0  -4  751.02   18.20
   6   0   4  712.93   17.70
   6   0   4  738.43   18.00
   6   0   4  711.43   18.10
  -7   0  -4  378.06   10.70
   7   0   4  362.16   12.20
   7   0   4  367.96   11.70
   7   0   4  371.76   12.00
  -8   0  -4   45.90    3.50
   8   0   4   45.70    4.10
   8   0   4   51.49    5.60
   8   0   4   43.70    4.60
  -9   0  -4  232.98    9.30
   9   0   4  227.08   10.30
   9   0   4  245.68   10.00
   9   0   4  220.28   10.50
   7  -1  -4    5.50    1.40
   7  -1  -4    4.40    1.90
   7  -1  -4    5.70    2.20
   7  -1  -4    8.10    2.50
  -7   1   4    8.20    2.80
   6  -1  -4  321.47   12.10
   6  -1  -4  334.07   13.10
   6  -1  -4  345.17    9.60
   6  -1  -4  350.26   13.00
  -6   1   4  321.47   12.90
   5  -1  -4   57.79    3.10
   5  -1  -4   35.40    4.50
   5  -1  -4   53.19    4.20
   5  -1  -4   48.90    4.30
   4  -1  -4    9.50    1.40
   4  -1  -4    6.20    1.60
   4  -1  -4    7.30    1.90
   4  -1  -4    5.60    1.60
  -4   1   4   10.10    1.50
  -4   1   4   11.70    2.50
   3  -1  -4  203.98    7.90
   3  -1  -4  213.08    8.10
   3  -1  -4  224.88    7.90
   3  -1  -4  228.48    6.00
  -3   1   4  220.48    8.30
  -3   1   4  222.48    6.00
   2  -1  -4  276.17    6.60
   2  -1  -4  290.47    8.90
  -2   1   4  269.37    8.80
  -2   1   4  272.37    6.60
   1  -1  -4  362.46    9.80
   1  -1  -4  376.76    9.90
  -1   1   4  357.56    8.00
  -1   1   4  379.16   10.10
   0  -1  -4  579.74   12.90
   0  -1  -4  571.44   12.90
   0   1   4  597.94   13.20
   0   1   4  569.54   11.70
   0   1   4  572.54   13.00
  -1  -1  -4  130.89    4.40
  -1  -1  -4  156.18    4.70
   1   1   4  150.08    4.70
   1   1   4  156.58    4.70
  -2  -1  -4    6.90    1.10
  -2  -1  -4    7.60    1.00
  -2  -1  -4    7.50    1.20
   2   1   4    6.50    1.00
  -3  -1  -4  129.69    4.70
  -3  -1  -4  135.39    4.70
   3   1   4  133.49    4.70
   3   1   4  129.19    4.60
  -4  -1  -4    3.30    0.90
   4   1   4    3.60    1.00
   4   1   4    2.40    0.80
  -5  -1  -4    1.90    0.70
  -5  -1  -4    1.10    0.70
   5   1   4    1.30    0.70
   5   1   4    1.60    0.80
   5   1   4    1.70    0.80
  -6  -1  -4  241.48    7.50
  -6  -1  -4  232.88    8.30
   6   1   4  240.58    8.40
   6   1   4  228.38    8.20
   6   1   4  242.18    8.50
  -7  -1  -4   42.00    3.10
   7   1   4   47.20    3.60
   7   1   4   40.40    3.50
   7   1   4   39.50    3.50
  -8  -1  -4  229.48    8.70
   8   1   4  244.88    9.90
   8   1   4  236.58    9.30
   8   1   4  236.18    9.70
  -9  -1  -4   95.79    6.10
  -9  -1  -4   85.89    6.10
   9   1   4   84.39    5.70
   9   1   4   92.79    6.30
   9   1   4  100.29    6.60
   7  -2  -4   26.80    4.50
   7  -2  -4   21.70    2.40
   7  -2  -4   22.90    4.00
   7  -2  -4   28.80    4.80
  -7   2   4   22.50    4.20
   6  -2  -4  105.79    7.10
   6  -2  -4  125.39    7.30
   6  -2  -4  111.49    4.50
   6  -2  -4  104.99    6.80
  -6   2   4  108.09    7.20
   5  -2  -4   70.79    5.10
   5  -2  -4   73.79    5.30
   5  -2  -4   73.49    3.20
   5  -2  -4   73.89    5.40
   4  -2  -4   85.49    3.20
   4  -2  -4   88.19    5.20
   4  -2  -4   73.09    5.00
   4  -2  -4   87.49    5.40
  -4   2   4   83.09    5.40
   3  -2  -4  147.19    6.50
   3  -2  -4  133.69    6.30
   3  -2  -4  138.99    3.90
  -3   2   4  140.89    6.60
   2  -2  -4 2016.50  108.89
   2  -2  -4 2143.99  117.09
  -2   2   4 1421.46  264.97
   1  -2  -4   37.70    2.60
   1  -2  -4   39.20    2.70
  -1   2   4   40.60    2.90
  -1   2   4   40.80    1.50
   0  -2  -4 3232.78  140.09
   0  -2  -4 3305.57  137.39
   0   2   4 2695.23  309.97
  -1  -2  -4   44.00    2.20
  -1  -2  -4   43.50    2.50
   1   2   4   40.50    2.20
  -2  -2  -4  484.55   10.90
  -2  -2  -4  469.55   10.30
  -2  -2  -4  471.35   11.00
   2   2   4  441.86   10.10
  -3  -2  -4    6.70    1.20
  -3  -2  -4    8.60    1.30
   3   2   4    9.30    1.50
   3   2   4    8.60    1.20
  -4  -2  -4 1272.67   90.39
  -4  -2  -4 1542.25   94.29
  -4  -2  -4 2154.98  400.26
   4   2   4 1584.94   96.59
   4   2   4 1655.03  102.29
   4   2   4 1235.38  291.07
  -5  -2  -4  170.58    6.40
  -5  -2  -4  171.08    5.80
   5   2   4  188.18    6.30
   5   2   4  183.08    6.60
   5   2   4  165.38    6.20
  -6  -2  -4 1083.59   24.10
  -6  -2  -4 1112.49   23.20
   6   2   4 1089.39   24.10
   6   2   4 1066.69   24.00
   6   2   4 1067.19   23.80
  -7  -2  -4  303.57    9.60
  -7  -2  -4  307.17   10.40
   7   2   4  292.87   10.10
   7   2   4  297.87   10.20
   7   2   4  294.77   10.20
  -8  -2  -4    0.80    1.00
  -8  -2  -4    2.50    1.30
   8   2   4    2.20    1.30
   8   2   4    1.90    1.10
   8   2   4    3.00    1.40
  -9  -2  -4   47.90    5.30
   9   2   4   56.89    4.80
   9   2   4   56.39    4.80
   9   2   4   50.29    4.40
 -10  -2  -4   41.90    5.20
 -10  -2  -4   40.00    4.70
  10   2   4   54.39    4.90
  10   2   4   44.50    5.40
  10   2   4   52.79    6.30
   6  -3  -4   23.50    1.70
   6  -3  -4   25.50    4.30
   6  -3  -4   21.00    3.70
   6  -3  -4   21.70    3.70
  -6   3   4   25.90    4.30
   5  -3  -4  196.98    9.00
   5  -3  -4  178.68    8.60
   5  -3  -4  176.48    4.90
  -5   3   4  187.48    9.20
   4  -3  -4   81.49    2.60
   4  -3  -4   80.69    5.20
   4  -3  -4   78.69    5.20
  -4   3   4   82.49    5.50
   3  -3  -4  276.17    9.80
   3  -3  -4  279.87    9.70
  -3   3   4  292.67   10.30
   2  -3  -4  657.43   16.10
   2  -3  -4  656.13   16.50
  -2   3   4  652.93   16.80
   1  -3  -4  395.56   11.10
   1  -3  -4  403.96   10.60
  -1   3   4  412.16   11.40
   0  -3  -4    0.60    0.50
   0  -3  -4    1.70    0.80
   0   3   4    0.30    0.50
   0   3   4    0.40    0.20
  -1  -3  -4  881.01  182.78
  -1  -3  -4 1238.68   78.09
  -1  -3  -4 1239.98   76.09
   1   3   4 1179.88   79.19
   1   3   4 1039.30  207.58
   1   3   4 1221.48   77.79
  -2  -3  -4   21.00    2.20
  -2  -3  -4   14.60    1.10
   2   3   4   18.20    1.40
   2   3   4   15.00    1.20
  -3  -3  -4 1740.53  348.77
  -3  -3  -4 1067.99   78.39
  -3  -3  -4 1091.69   76.19
   3   3   4 1089.99   76.29
   3   3   4 1043.60   78.09
   3   3   4  727.33  232.28
  -4  -3  -4  185.38    6.30
   4   3   4  185.48    6.30
   4   3   4  187.88    6.30
   4   3   4  182.78    5.60
  -5  -3  -4 1255.27   26.50
   5   3   4 1305.67   25.90
  -6  -3  -4  177.58    6.60
  -6  -3  -4  164.38    6.70
   6   3   4  165.38    6.60
   6   3   4  172.88    6.80
   6   3   4  165.68    6.40
  -7  -3  -4  926.11   22.30
  -7  -3  -4  964.90   21.90
   7   3   4  952.90   22.50
   7   3   4  937.61   22.00
   7   3   4  931.21   22.30
  -8  -3  -4   23.70    3.30
  -8  -3  -4   22.60    3.30
   8   3   4   27.50    3.60
   8   3   4   26.90    3.50
   8   3   4   28.60    3.80
  -9  -3  -4   88.69    6.00
   9   3   4   91.69    6.00
   9   3   4   78.99    5.60
   9   3   4   74.89    5.40
 -10  -3  -4  116.29    7.50
 -10  -3  -4  113.69    7.00
  10   3   4  117.39    7.20
  10   3   4  115.49    7.40
  10   3   4  130.99    7.80
   6  -4  -4    0.70    0.30
   6  -4  -4    2.20    1.70
   6  -4  -4    1.00    1.40
  -6   4   4    0.90    1.30
   5  -4  -4  505.75   16.40
   5  -4  -4  522.25   16.50
  -5   4   4  514.85   17.00
   4  -4  -4   76.29    5.20
   4  -4  -4   70.29    5.00
   3  -4  -4  438.06   13.40
   3  -4  -4  435.46   13.40
  -3   4   4  437.96   13.80
   2  -4  -4  750.22   18.50
   2  -4  -4  771.42   18.00
  -2   4   4  724.33   18.70
   1  -4  -4  424.26   10.90
   1  -4  -4  424.56   11.90
  -1   4   4  424.96   12.10
   0  -4  -4    1.30    0.70
   0  -4  -4    0.60    0.40
   0   4   4    1.90    0.30
  -1  -4  -4  123.69    3.70
  -1  -4  -4  114.99    5.00
   1   4   4  120.29    3.40
  -2  -4  -4  610.24   12.10
  -2  -4  -4  612.74   14.10
   2   4   4  630.44   13.10
  -3  -4  -4   14.70    1.90
   3   4   4   13.00    1.60
   3   4   4   14.10    1.10
  -4  -4  -4 1746.33  312.17
  -4  -4  -4 1979.50  112.69
  -4  -4  -4 2050.79  118.69
   4   4   4 1770.62  113.29
   4   4   4 2641.64  455.55
   4   4   4 1962.60  113.49
  -5  -4  -4   38.30    2.80
   5   4   4   34.00    2.70
   5   4   4   35.10    2.80
   5   4   4   40.00    2.40
  -6  -4  -4   42.80    3.20
   6   4   4   49.30    3.40
   6   4   4   48.20    3.10
   6   4   4   44.40    3.40
  -7  -4  -4   79.19    4.80
  -7  -4  -4   88.09    5.00
   7   4   4   90.09    5.10
   7   4   4   94.99    4.90
  -8  -4  -4   31.50    3.90
  -8  -4  -4   27.90    3.80
   8   4   4   20.20    3.00
  -9  -4  -4   31.20    4.10
  -9  -4  -4   38.70    4.70
   9   4   4   34.90    4.30
   9   4   4   34.40    4.40
 -10  -4  -4  127.09    7.80
 -10  -4  -4  135.39    7.80
  10   4   4  146.79    8.10
  10   4   4  130.09    7.80
  10   4   4  134.49    7.90
   6  -5  -4   48.90    6.10
   6  -5  -4   41.70    5.50
  -6   5   4   43.50    5.70
   5  -5  -4   56.49    5.00
   5  -5  -4   55.79    5.00
  -5   5   4   61.39    5.40
   4  -5  -4  513.55   15.90
   4  -5  -4  495.85   15.60
   3  -5  -4    1.10    0.90
   3  -5  -4    2.10    1.30
  -3   5   4   -0.20    0.80
   2  -5  -4  250.57    9.20
  -2   5   4  248.68    9.40
   1  -5  -4  188.28    6.50
   1  -5  -4  210.48    7.90
  -1   5   4  193.48    7.70
   0  -5  -4    6.40    1.50
   0  -5  -4    8.30    1.30
  -1  -5  -4  526.25   14.00
  -1  -5  -4  552.04   11.10
   1   5   4  538.15   11.20
  -2  -5  -4  252.47    5.50
   2   5   4  266.07    6.90
  -3  -5  -4  531.05   12.30
  -3  -5  -4  514.35   12.60
   3   5   4  515.75   12.10
   3   5   4  502.15    9.90
  -4  -5  -4   24.10    2.70
  -4  -5  -4   22.80    2.50
   4   5   4   22.50    2.50
   4   5   4   24.80    1.50
  -5  -5  -4  652.93   15.70
   5   5   4  663.33   14.10
   5   5   4  642.04   15.90
   5   5   4  632.74   15.60
  -6  -5  -4  156.28    6.40
   6   5   4  144.29    6.40
   6   5   4  138.39    6.10
   6   5   4  147.59    5.50
  -7  -5  -4   13.00    2.30
  -7  -5  -4    9.00    2.00
   7   5   4   12.50    2.10
   7   5   4   12.10    2.30
  -8  -5  -4    7.10    1.90
   8   5   4    8.30    2.20
  -9  -5  -4    3.00    1.50
  -9  -5  -4    4.10    1.70
   9   5   4    4.60    1.80
   9   5   4    6.00    2.00
 -10  -5  -4  143.69    8.20
  10   5   4  142.49    7.80
  10   5   4  148.09    8.30
  10   5   4  129.09    7.70
   5  -6  -4  125.89    7.80
   5  -6  -4  104.99    7.00
  -5   6   4  105.79    7.30
   4  -6  -4  216.38    9.80
   4  -6  -4  207.28    9.50
  -4   6   4  230.18   10.20
   3  -6  -4    1.10    1.00
   3  -6  -4    0.90    1.10
   2  -6  -4   76.49    5.00
  -2   6   4   79.99    5.20
   1  -6  -4   14.40    2.60
   1  -6  -4   11.90    1.90
   0  -6  -4  209.18    8.30
   0  -6  -4  239.98    6.50
  -1  -6  -4   14.70    2.50
  -1  -6  -4   15.40    1.10
  -1  -6  -4   14.20    1.20
   1   6   4   13.90    1.20
  -3  -6  -4   17.20    2.10
  -3  -6  -4   13.70    2.00
   3   6   4   12.80    1.80
  -4  -6  -4  444.96   11.60
  -4  -6  -4  435.16   11.70
   4   6   4  433.26   11.60
   4   6   4  439.66    8.70
  -5  -6  -4   97.29    4.70
  -5  -6  -4  100.19    5.10
   5   6   4   93.69    4.80
   5   6   4  103.59    3.50
  -6  -6  -4   10.60    1.90
  -6  -6  -4    8.80    2.10
   6   6   4    8.80    1.90
   6   6   4   10.00    1.50
   6   6   4   10.20    2.00
  -7  -6  -4   46.40    3.70
   7   6   4   51.39    3.30
   7   6   4   43.10    3.60
  -8  -6  -4  308.17   10.90
  -8  -6  -4  295.47   11.30
   8   6   4  298.37   10.70
   8   6   4  309.87   10.10
  -9  -6  -4  106.99    6.80
  -9  -6  -4  103.69    6.40
   9   6   4  108.69    6.50
   9   6   4  104.49    6.70
   9   6   4  110.49    6.10
   4  -7  -4   83.79    6.00
   4  -7  -4   74.29    5.90
  -4   7   4   77.59    6.00
   3  -7  -4   34.70    4.20
   3  -7  -4   37.10    4.40
   2  -7  -4    5.40    1.90
   2  -7  -4    8.40    2.00
   1  -7  -4  442.26   11.50
   1  -7  -4  425.46   13.50
   0  -7  -4    1.40    1.00
   0  -7  -4    2.90    0.80
  -1  -7  -4  495.75   14.40
  -1  -7  -4  502.15   11.00
  -1  -7  -4  502.95    9.90
   1   7   4  494.35   11.00
  -2  -7  -4    6.10    1.20
   2   7   4    5.20    1.20
  -3  -7  -4  843.72   18.80
  -3  -7  -4  841.92   19.20
   3   7   4  898.31   19.20
  -4  -7  -4   82.69    4.40
  -4  -7  -4   94.89    4.50
   4   7   4   93.79    4.60
  -5  -7  -4  337.27   10.20
  -5  -7  -4  360.26   11.10
   5   7   4  353.36   10.80
   5   7   4  361.36    7.60
  -6  -7  -4  106.09    5.80
  -6  -7  -4  110.19    5.30
   6   7   4  113.09    4.10
   6   7   4  112.29    5.80
  -7  -7  -4   92.09    5.70
  -7  -7  -4   85.79    5.00
   7   7   4   84.39    4.10
   7   7   4   87.49    5.10
  -8  -7  -4  503.95   15.10
  -8  -7  -4  542.55   16.70
   8   7   4  517.45   16.10
   8   7   4  526.95   15.40
   8   7   4  498.85   13.70
  -9  -7  -4  202.88    9.90
  -9  -7  -4  209.38    9.20
   9   7   4  192.08    9.50
   9   7   4  200.88    9.10
   9   7   4  205.78    8.40
   4  -8  -4   95.09    6.90
   4  -8  -4   95.09    6.70
   3  -8  -4   68.69    5.50
   3  -8  -4   60.99    5.10
   2  -8  -4   27.70    3.80
   2  -8  -4   21.00    3.20
   1  -8  -4  159.78    6.10
   1  -8  -4  175.28    8.20
   0  -8  -4  985.30   24.10
   0  -8  -4  946.71   19.40
   0  -8  -4  941.51   18.30
  -1  -8  -4  200.18    8.60
  -1  -8  -4  210.18    6.00
  -1  -8  -4  206.28    4.40
  -1  -8  -4  205.58    4.40
   1   8   4  215.18    6.10
  -2  -8  -4  522.55   15.40
  -2  -8  -4  535.15   12.70
   2   8   4  536.25   13.00
  -3  -8  -4    7.90    1.60
  -3  -8  -4    9.40    1.60
   3   8   4    9.60    1.80
  -4  -8  -4   30.30    2.70
  -4  -8  -4   24.10    2.70
   4   8   4   27.70    3.20
  -5  -8  -4   38.30    3.30
  -5  -8  -4   47.00    3.30
   5   8   4   44.90    3.60
  -6  -8  -4  376.46   12.60
  -6  -8  -4  386.76   11.60
   6   8   4  408.56    9.00
   6   8   4  408.96    8.80
  -7  -8  -4   48.10    3.70
  -7  -8  -4   53.89    4.50
   7   8   4   51.09    2.90
   7   8   4   56.49    4.50
   7   8   4   50.69    3.00
  -8  -8  -4  327.87   11.30
  -8  -8  -4  320.57   12.70
  -8  -8  -4  339.97   12.80
   8   8   4  307.27   11.20
   8   8   4  336.37    9.90
   8   8   4  327.97   12.40
  -9  -8  -4  267.87   10.50
  -9  -8  -4  262.77   11.80
   9   8   4  261.57    9.30
   9   8   4  242.78   11.10
   9   8   4  251.07   10.40
   3  -9  -4  256.97   11.30
   3  -9  -4  248.48   11.10
   2  -9  -4  137.79    7.60
   2  -9  -4  138.39    7.80
   1  -9  -4  158.58    8.20
   1  -9  -4  158.08    6.10
   1  -9  -4  158.78    5.90
   0  -9  -4  212.78    9.50
   0  -9  -4  216.78    5.80
   0  -9  -4  228.38    6.10
   0  -9  -4  223.68    6.20
  -1  -9  -4  390.66   13.30
  -1  -9  -4  377.96    9.60
   1   9   4  383.66    9.70
  -2  -9  -4  102.29    4.50
  -2  -9  -4  103.69    6.20
   2   9   4  103.79    4.60
  -3  -9  -4  534.25   13.60
  -3  -9  -4  527.45   13.80
   3   9   4  497.55   13.60
  -4  -9  -4   33.00    2.80
  -4  -9  -4   35.90    3.10
   4   9   4   37.00    3.20
  -5  -9  -4  201.08    7.50
  -5  -9  -4  212.38    8.40
   5   9   4  210.88    8.50
  -6  -9  -4    4.50    1.70
  -6  -9  -4    4.40    1.40
   6   9   4    6.90    2.10
  -7  -9  -4  446.86   14.70
  -7  -9  -4  447.86   13.10
   7   9   4  436.26   10.10
   7   9   4  422.86   14.30
   7   9   4  444.86   10.00
  -8  -9  -4    6.50    2.30
  -8  -9  -4    4.30    1.90
  -8  -9  -4    6.70    1.90
   8   9   4    6.00    1.30
   8   9   4    4.40    1.70
   8   9   4    7.90    1.50
   2 -10  -4   45.60    5.60
   2 -10  -4   35.40    3.10
   2 -10  -4   37.00    5.10
   2 -10  -4   32.20    3.60
   1 -10  -4   72.99    3.80
   1 -10  -4   74.29    5.50
   1 -10  -4   73.29    3.90
   1 -10  -4   84.99    6.10
   0 -10  -4  208.28    5.90
   0 -10  -4  205.38    5.60
   0 -10  -4  214.48    5.80
   0 -10  -4  224.78   10.20
  -1 -10  -4   16.30    2.00
  -1 -10  -4   10.50    2.50
  -2 -10  -4    1.00    1.10
  -2 -10  -4    1.20    0.80
   2  10   4   -0.30    0.40
  -3 -10  -4  138.19    6.10
  -3 -10  -4  128.89    5.90
   3  10   4  126.39    6.00
  -4 -10  -4  302.27    9.70
  -4 -10  -4  316.37   10.50
   4  10   4  307.27   10.60
  -5 -10  -4    0.40    0.80
  -5 -10  -4    1.30    0.90
   5  10   4   -0.10    0.50
  -6 -10  -4  481.25   13.40
  -6 -10  -4  473.55   15.10
   6  10   4  459.45   14.90
  -7 -10  -4   61.39    5.10
  -7 -10  -4   61.39    4.30
   7  10   4   48.80    5.40
  -8 -10  -4   43.10    5.70
  -8 -10  -4   49.90    6.00
  -8 -10  -4   40.10    4.30
   8  10   4   39.30    5.20
   8  10   4   41.40    2.30
   8  10   4   42.80    2.30
   0 -11  -4    0.90    1.10
   0 -11  -4    0.60    0.30
   0 -11  -4    1.10    0.60
   0 -11  -4    0.70    0.30
  -1 -11  -4   98.69    4.50
  -1 -11  -4  103.69    7.00
  -2 -11  -4   10.80    2.00
  -2 -11  -4   10.50    2.10
  -2 -11  -4    9.50    2.40
   2  11   4   11.70    2.00
  -3 -11  -4   52.69    3.80
  -3 -11  -4   41.50    5.10
  -3 -11  -4   52.29    3.80
   3  11   4   50.29    3.80
  -4 -11  -4   59.79    3.90
  -4 -11  -4   56.19    4.20
  -5 -11  -4  120.79    6.60
  -5 -11  -4  110.19    5.50
   5  11   4  108.39    6.50
  -6 -11  -4   90.69    5.00
  -6 -11  -4   96.09    6.20
   6  11   4   93.69    6.20
  -7 -11  -4  107.29    5.70
  -7 -11  -4  107.39    7.00
  -2 -12  -4  126.59    6.00
  -2 -12  -4  148.59    7.00
  -2 -12  -4  141.89    8.60
   2  12   4  150.18    6.50
  -3 -12  -4   13.10    2.40
  -3 -12  -4   11.60    2.30
  -3 -12  -4   10.50    3.00
  -4 -12  -4  469.85   13.30
  -4 -12  -4  488.65   14.70
   4  12   4  463.75   14.70
  -5 -12  -4    0.20    0.80
  -5 -12  -4    0.20    0.80
   5  12   4    0.70    1.10
   2  10  -5   16.00    2.80
  -2 -10   5   23.90    3.80
  -2 -10   5   21.30    3.20
  -2 -10   5   24.20    3.70
   1  10  -5   37.10    4.40
  -1 -10   5   35.30    4.30
  -1 -10   5   42.20    5.00
  -1 -10   5   35.30    3.30
   0  10  -5  164.28    7.70
   0 -10   5  154.18    7.60
   0 -10   5  148.09    6.30
   0 -10   5  151.48    8.40
   1 -10   5   63.39    4.70
   1 -10   5   53.49    3.30
   1 -10   5   55.09    3.50
   1 -10   5   59.19    5.10
   4   9  -5  154.38    8.00
   4   9  -5  163.68    9.00
  -4  -9   5  147.69    8.10
  -4  -9   5  154.98    8.70
   3   9  -5   33.10    4.00
   3   9  -5   46.80    5.60
  -3  -9   5   38.00    5.10
  -3  -9   5   44.00    5.00
  -2  -9   5  162.78    8.60
  -2  -9   5  169.68    7.60
  -2  -9   5  169.98    8.00
  -1  -9   5  122.79    5.90
  -1  -9   5  112.59    7.00
  -1  -9   5  127.69    6.70
   0  -9   5  133.19    6.70
   0  -9   5  116.09    5.30
   0  -9   5  122.89    7.10
   1  -9   5   39.40    4.50
   1  -9   5   32.20    4.30
   1  -9   5   30.40    2.40
   1  -9   5   26.90    2.30
   2  -9   5  187.78    5.80
   2  -9   5  204.68    8.80
   2  -9   5  202.38    6.10
   2  -9   5  198.98    5.30
   2  -9   5  189.38    9.00
   3  -9   5    6.70    2.00
   3  -9   5    6.50    0.80
   3  -9   5    9.40    1.60
   3  -9   5    6.20    0.80
   3  -9   5   13.10    2.70
   5   8  -5  218.28   10.40
   5   8  -5  218.88   10.00
  -5  -8   5  221.88   10.50
  -5  -8   5  221.78   10.40
   4   8  -5   38.10    5.00
   4   8  -5   23.20    3.30
  -4  -8   5   28.00    3.90
  -4  -8   5   31.30    4.50
   3   8  -5   63.79    5.20
  -3  -8   5   63.09    5.10
  -3  -8   5   54.99    4.40
  -2  -8   5   35.80    4.50
  -2  -8   5   33.10    4.00
  -2  -8   5   34.50    3.30
   1   8  -5  238.68    9.20
  -1  -8   5  236.88    8.40
  -1  -8   5  269.57   10.60
  -1  -8   5  243.48    9.40
   0   8  -5   81.39    5.10
   0  -8   5   83.89    4.20
   0  -8   5   93.39    5.90
   0  -8   5   78.49    4.90
  -1   8  -5  347.57   13.50
   1  -8   5  365.26    9.30
   1  -8   5  351.66   12.30
   1  -8   5  349.57   11.70
   2  -8   5  155.28    7.60
   2  -8   5  150.78    4.70
   2  -8   5  150.18    4.60
   2  -8   5  151.78    7.20
   2  -8   5  152.18    4.80
   3  -8   5  326.37   11.70
   3  -8   5  346.97   12.20
   3  -8   5  339.57    9.30
   3  -8   5  328.97    6.70
   3  -8   5  333.07    6.70
   4  -8   5  132.59    5.80
   4  -8   5  122.39    7.00
   4  -8   5  128.99    7.20
   5  -8   5  221.18   10.10
   5  -8   5  202.78    9.40
   5  -8   5  212.08    8.50
   5   7  -5  242.68   10.60
   5   7  -5  248.78   10.60
   5   7  -5  233.68    5.60
  -5  -7   5  241.88   10.70
  -5  -7   5  257.47   10.80
   4   7  -5   40.80    4.80
   4   7  -5   38.40    4.50
  -4  -7   5   44.60    5.10
  -4  -7   5   37.20    4.40
   3   7  -5  447.86   14.60
  -3  -7   5  484.25   14.30
  -3  -7   5  447.36   14.40
  -3  -7   5  448.26   14.60
   2   7  -5   39.00    3.50
  -2  -7   5   40.00    4.50
  -2  -7   5   36.20    4.20
  -2  -7   5   36.20    3.20
   1   7  -5   39.70    3.40
  -1  -7   5   49.80    3.40
  -1  -7   5   49.90    4.10
  -1  -7   5   46.30    3.70
   0   7  -5  303.37   10.40
   0  -7   5  298.37   10.90
   0  -7   5  320.97    9.00
   0  -7   5  317.27   10.50
  -1   7  -5    0.40    0.70
   1  -7   5    0.90    0.50
   1  -7   5    0.60    0.80
   1  -7   5    2.10    1.10
  -2   7  -5  239.88    9.50
   2  -7   5  281.17    7.10
   2  -7   5  270.07   10.10
   2  -7   5  272.87    6.50
   2  -7   5  269.77    9.80
   2  -7   5  264.07    6.50
   3  -7   5   79.69    3.80
   3  -7   5   86.09    5.30
   3  -7   5   79.59    5.10
   4  -7   5  148.49    6.10
   4  -7   5  153.48    7.40
   4  -7   5  145.69    7.40
   5  -7   5    6.60    1.80
   5  -7   5   12.00    2.60
   5  -7   5   11.60    2.70
   6  -7   5  180.18    8.20
   6  -7   5  178.08    9.20
   6  -7   5  164.18    8.30
   6   6  -5  231.98    7.60
   6   6  -5  244.48   10.70
   6   6  -5  225.88   10.30
  -6  -6   5  219.68   10.00
  -6  -6   5  227.38   10.90
   5   6  -5   36.40    4.40
   5   6  -5   30.50    4.20
   5   6  -5   30.70    2.20
  -5  -6   5   27.70    4.00
  -5  -6   5   32.60    4.30
   4   6  -5  154.78    4.40
   4   6  -5  156.48    7.70
  -4  -6   5  164.68    7.80
  -4  -6   5  149.39    7.60
   3   6  -5   34.40    4.20
   3   6  -5   31.30    4.00
  -3  -6   5   34.50    4.20
  -3  -6   5   33.60    4.10
   2   6  -5  694.13   18.60
   2   6  -5  715.03   18.30
  -2  -6   5  714.03   18.80
  -2  -6   5  682.23   18.30
  -2  -6   5  704.33   17.50
   1   6  -5  429.26   12.70
  -1  -6   5  444.06   12.80
  -1  -6   5  432.56   13.20
  -1  -6   5  395.26   11.30
   0   6  -5  114.29    5.70
   0  -6   5  115.49    4.60
   0  -6   5  118.49    5.70
   0  -6   5  116.69    6.00
  -1   6  -5  534.85   14.80
   1  -6   5  541.55   11.90
   1  -6   5  552.94   15.20
   1  -6   5  530.25   14.60
  -2   6  -5   15.40    1.70
  -2   6  -5   12.10    2.20
   2  -6   5   19.30    2.90
   2  -6   5   15.50    2.50
   2  -6   5   12.90    1.00
   2  -6   5   11.40    0.90
   2  -6   5   16.00    1.70
  -3   6  -5  252.07    9.40
  -3   6  -5  232.28    7.50
   3  -6   5  232.98    7.20
   3  -6   5  237.58    9.00
   3  -6   5  240.78    9.10
  -4   6  -5  287.47    9.30
   4  -6   5  278.37    8.90
   4  -6   5  287.07   10.30
   4  -6   5  286.37   10.50
  -5   6  -5   72.39    4.70
   5  -6   5   70.89    4.50
   5  -6   5   78.79    5.40
  -6   6  -5    0.00    0.70
   6  -6   5    1.00    1.20
   6  -6   5    0.50    0.80
   6   5  -5    1.00    1.00
   6   5  -5    0.70    0.90
   6   5  -5    0.70    1.20
  -6  -5   5   -0.60    0.60
  -6  -5   5   -0.10    1.00
   5   5  -5  164.68    7.90
   5   5  -5  173.88    8.50
   5   5  -5  169.38    6.20
  -5  -5   5  173.18    8.60
  -5  -5   5  175.48    8.10
   4   5  -5   -0.30    0.50
   4   5  -5   -0.10    0.40
  -4  -5   5   -0.20    0.70
  -4  -5   5    0.20    0.90
   3   5  -5    0.90    0.80
   3   5  -5    0.20    0.80
   3   5  -5    0.30    0.40
  -3  -5   5    1.00    0.80
  -3  -5   5    1.40    1.00
   2   5  -5  374.76   11.80
   2   5  -5  378.76    7.60
   2   5  -5  369.36   11.70
   2   5  -5  374.46    7.60
  -2  -5   5  373.96   11.80
  -2  -5   5  382.86   11.30
  -2  -5   5  365.76   11.70
   1   5  -5    4.30    1.40
  -1  -5   5    3.40    1.00
  -1  -5   5    8.30    2.00
  -1  -5   5    6.10    1.70
   0   5  -5  688.53   17.20
   0   5  -5  701.23   12.80
   0  -5   5  690.03   17.50
   0  -5   5  710.93   17.30
   0  -5   5  692.93   15.30
  -1   5  -5  165.98    4.50
  -1   5  -5  173.28    7.00
   1  -5   5  171.68    4.90
   1  -5   5  162.38    6.80
   1  -5   5  148.19    6.40
  -2   5  -5  218.88    6.20
  -2   5  -5  210.68    8.00
   2  -5   5  207.28    4.40
   2  -5   5  209.08    4.40
   2  -5   5  208.38    7.90
   2  -5   5  203.58    5.90
   2  -5   5  201.58    7.80
  -3   5  -5  107.89    5.70
  -3   5  -5  112.29    4.70
   3  -5   5  103.19    4.30
   3  -5   5  109.89    5.50
   3  -5   5   94.49    5.30
  -4   5  -5  345.47   10.40
   4  -5   5  340.37   11.40
   4  -5   5  346.77   10.00
  -5   5  -5   26.10    3.20
   5  -5   5   23.80    3.00
   5  -5   5   19.40    3.10
   6  -5   5   43.50    4.50
   6  -5   5   45.50    5.20
  -7   5  -5   28.30    3.90
   7  -5   5   32.90    4.70
   7  -5   5   42.60    4.80
   6   4  -5    2.00    1.40
   6   4  -5    1.30    1.20
   6   4  -5    3.00    1.30
  -6  -4   5    2.50    1.40
  -6  -4   5    1.90    1.40
   5   4  -5    8.00    2.10
   5   4  -5   12.20    2.40
   5   4  -5   12.40    2.10
  -5  -4   5    9.40    2.20
  -5  -4   5    8.70    2.50
   4   4  -5  103.09    4.50
   4   4  -5  104.39    5.60
  -4  -4   5   93.49    5.30
  -4  -4   5   99.19    5.90
   3   4  -5  193.98    8.00
   3   4  -5  184.88    5.80
   3   4  -5  183.98    7.40
  -3  -4   5  183.78    7.60
  -3  -4   5  186.48    7.50
   2   4  -5   73.69    4.50
   2   4  -5   75.19    4.40
   2   4  -5   70.99    2.80
  -2  -4   5   81.19    4.60
  -2  -4   5   71.19    4.20
  -2  -4   5   71.89    4.50
   1   4  -5  647.34   16.50
   1   4  -5  661.53   12.90
  -1  -4   5  656.63   16.60
  -1  -4   5  664.63   15.40
  -1  -4   5  650.13   16.40
   0   4  -5  225.58    8.00
   0   4  -5  227.48    5.40
   0  -4   5  230.38    8.00
   0  -4   5  232.98    6.70
   0  -4   5  227.88    7.90
  -1   4  -5  411.36   11.90
  -1   4  -5  434.06    9.50
   1  -4   5  446.56   12.10
   1  -4   5  423.86   12.00
   1  -4   5  440.16    9.50
  -2   4  -5   29.50    2.70
  -2   4  -5   27.30    1.90
   2  -4   5   28.00    1.90
   2  -4   5   24.50    2.80
   2  -4   5   28.10    2.60
  -3   4  -5  107.09    5.50
  -3   4  -5  107.99    4.50
   3  -4   5  108.29    4.40
   3  -4   5  111.09    5.50
  -4   4  -5   45.80    3.20
   4  -4   5   45.40    3.60
   4  -4   5   45.60    3.10
  -5   4  -5  295.77   10.00
   5  -4   5  296.77   10.70
   5  -4   5  319.37   10.00
   6  -4   5  697.83   19.50
   6  -4   5  696.33   18.20
  -7   4  -5  134.79    7.30
   7  -4   5  150.58    8.10
   7  -4   5  124.09    6.90
  -8   4  -5  109.89    7.20
   8  -4   5  123.79    7.40
   8  -4   5  123.99    7.90
   6   3  -5    1.00    1.10
   6   3  -5    2.80    1.30
   6   3  -5    0.70    1.00
   6   3  -5    0.20    0.90
  -6  -3   5    3.30    1.70
  -6  -3   5    1.50    1.10
   5   3  -5  195.38    9.10
   5   3  -5  215.48    7.90
   5   3  -5  209.38    8.20
   5   3  -5  200.38    9.30
  -5  -3   5  196.08    9.20
  -5  -3   5  207.48    8.20
   4   3  -5  229.78    8.50
   4   3  -5  241.68    7.90
   4   3  -5  245.38    9.70
  -4  -3   5  236.98    9.50
  -4  -3   5  246.68    8.70
   3   3  -5   22.50    2.40
   3   3  -5   27.90    3.60
   3   3  -5   27.30    3.50
   3   3  -5   19.70    2.50
  -3  -3   5   14.90    2.30
  -3  -3   5   21.50    3.00
   2   3  -5 1100.19   21.60
   2   3  -5 1079.09   23.60
   2   3  -5 1061.79   23.70
   2   3  -5 1051.39   24.30
  -2  -3   5 1075.29   23.80
  -2  -3   5 1065.59   23.50
  -2  -3   5 1125.59   25.00
   1   3  -5  625.34   14.70
   1   3  -5  610.94   15.50
  -1  -3   5  641.54   15.30
  -1  -3   5  612.34   15.70
  -1  -3   5  612.04   14.60
   0   3  -5  279.47    6.70
   0   3  -5  265.87    8.60
   0   3  -5  276.87    7.50
   0  -3   5  274.87    8.50
   0  -3   5  277.57    7.50
   0  -3   5  264.07    8.50
  -1   3  -5  368.16   10.60
  -1   3  -5  363.96    8.50
   1  -3   5  378.66   10.60
   1  -3   5  380.46    8.30
   1  -3   5  366.86   10.40
  -2   3  -5  384.36   11.20
  -2   3  -5  400.16    9.60
   2  -3   5  398.16   11.10
   2  -3   5  407.06    9.60
  -3   3  -5    8.10    1.50
  -3   3  -5    9.50    1.90
   3  -3   5    9.20    1.40
  -4   3  -5  501.15   12.70
   4  -3   5  480.25   12.40
   4  -3   5  486.15   13.70
  -5   3  -5  132.79    6.00
   5  -3   5  140.19    6.70
   5  -3   5  137.39    6.00
  -6   3  -5   23.40    3.40
   6  -3   5   24.00    3.20
   6  -3   5   23.30    3.30
  -7   3  -5  109.79    3.90
  -7   3  -5  110.59    6.40
   7  -3   5  109.99    6.20
   7  -3   5  111.59    6.80
  -8   3  -5  212.58    6.80
  -8   3  -5  228.68   10.20
   8  -3   5  205.98   10.20
   8  -3   5  223.18    9.90
   7   2  -5    1.60    1.30
   7   2  -5    0.20    0.90
   7   2  -5    0.10    1.00
   7   2  -5   -0.70    0.60
  -7  -2   5   -0.20    0.80
  -7  -2   5    0.40    1.10
   6   2  -5   60.59    4.50
   6   2  -5   60.49    4.20
   6   2  -5   41.20    4.90
   6   2  -5   42.10    5.00
  -6  -2   5   54.59    4.10
  -6  -2   5   57.99    5.20
   5   2  -5   85.39    5.80
   5   2  -5   76.99    4.50
   5   2  -5   69.09    5.30
   5   2  -5   79.69    4.80
  -5  -2   5   83.89    4.70
  -5  -2   5   89.89    5.90
   4   2  -5  757.32   22.90
   4   2  -5  721.63   19.50
   4   2  -5  733.23   17.60
   4   2  -5  722.63   17.60
  -4  -2   5  756.22   17.80
  -4  -2   5  725.23   19.50
   3   2  -5 1036.20   24.30
   3   2  -5 1011.40   22.40
   3   2  -5 1013.00   22.00
   3   2  -5 1058.49   24.00
  -3  -2   5 1032.20   24.00
  -3  -2   5 1045.40   22.50
   2   2  -5   68.29    3.70
   2   2  -5   75.59    4.40
   2   2  -5   78.59    4.30
  -2  -2   5   70.19    4.10
  -2  -2   5   65.49    3.60
  -2  -2   5   71.09    4.40
   1   2  -5 1134.19   24.50
   1   2  -5 1130.59   23.50
  -1  -2   5 1136.89   23.60
  -1  -2   5 1131.99   24.60
  -1  -2   5 1104.69   23.40
   0   2  -5  192.98    6.90
   0   2  -5  204.38    5.70
   0   2  -5  197.28    6.00
   0  -2   5  192.78    6.90
   0  -2   5  201.68    6.10
   0  -2   5  199.78    6.60
  -1   2  -5  958.00   20.90
   1  -2   5  975.50   18.60
   1  -2   5  952.80   20.60
   1  -2   5  962.70   20.90
  -2   2  -5  700.23   14.90
  -2   2  -5  691.53   16.50
   2  -2   5  706.83   15.00
  -3   2  -5 1714.53  342.87
  -3   2  -5 1382.16   90.09
  -3   2  -5 1555.44   91.29
   3  -2   5 2258.37  405.66
   3  -2   5 1449.95   96.59
   3  -2   5 1433.86   91.79
  -4   2  -5  104.79    4.70
   4  -2   5  110.19    4.80
   4  -2   5  112.29    5.30
  -5   2  -5 1349.47   28.40
   5  -2   5 1292.97   28.10
   5  -2   5 1358.86   29.40
  -6   2  -5    6.70    1.70
  -6   2  -5    4.40    0.80
   6  -2   5    6.40    1.70
   6  -2   5    2.00    1.10
  -7   2  -5   81.29    3.50
   7  -2   5   75.09    5.10
   7  -2   5   77.59    5.40
  -8   2  -5   15.00    2.10
  -8   2  -5   12.50    2.60
   8  -2   5   12.00    2.50
   8  -2   5   12.40    2.60
   8  -2   5   13.00    2.80
  -9   2  -5   52.29    3.60
  -9   2  -5   52.69    5.70
   9  -2   5   49.99    5.80
   9  -2   5   55.99    4.90
   9  -2   5   44.70    5.30
   7   1  -5  104.19    5.60
   7   1  -5  101.59    7.40
   7   1  -5  108.69    7.70
   7   1  -5  101.69    6.60
  -7  -1   5  100.19    7.50
  -7  -1   5   99.09    5.70
   6   1  -5    0.20    0.90
   6   1  -5   -0.50    0.70
   6   1  -5    1.10    1.30
   6   1  -5   -0.30    0.50
  -6  -1   5    0.00    0.80
  -6  -1   5   -0.20    0.60
   5   1  -5   59.29    4.30
   5   1  -5   54.39    3.60
   5   1  -5   60.59    4.90
  -5  -1   5   57.79    3.70
   4   1  -5  175.68    7.20
   4   1  -5  179.88    6.50
   4   1  -5  172.28    7.90
  -4  -1   5  181.48    8.20
  -4  -1   5  192.98    6.80
   3   1  -5  245.68    8.10
   3   1  -5  244.68    9.20
   3   1  -5  249.58    9.10
   3   1  -5  265.27    7.90
  -3  -1   5  249.38    9.20
  -3  -1   5  253.57    7.70
   2   1  -5   22.30    1.90
   2   1  -5   22.60    2.60
   2   1  -5   31.20    2.80
  -2  -1   5   27.40    3.10
  -2  -1   5   22.60    1.90
   1   1  -5  435.66   11.40
  -1  -1   5  444.56   11.50
  -1  -1   5  428.86   12.10
  -1  -1   5  441.96   10.80
   0   1  -5  162.58    5.40
   0  -1   5  190.98    5.80
   0  -1   5  169.98    6.20
   0  -1   5  168.28    5.60
  -1   1  -5    0.70    0.40
  -1   1  -5    1.30    0.70
  -1   1  -5    0.70    0.40
   1  -1   5    0.10    0.40
   1  -1   5    0.50    0.40
  -2   1  -5 1625.24  303.47
  -2   1  -5 1449.55   90.19
  -2   1  -5 1506.55   94.79
   2  -1   5 1624.34  304.47
   2  -1   5 1644.14  102.59
   2  -1   5 1643.04   98.89
  -3   1  -5    3.80    0.30
  -3   1  -5    4.20    1.00
  -3   1  -5    2.20    0.90
   3  -1   5    2.40    0.80
   3  -1   5    3.10    0.90
  -4   1  -5  625.34   15.50
  -4   1  -5  624.24   11.40
  -4   1  -5  605.54   14.70
   4  -1   5  614.84   14.60
   4  -1   5  629.44   15.40
  -5   1  -5    0.90    0.70
  -5   1  -5    1.70    0.50
   5  -1   5    0.40    0.60
   5  -1   5    2.50    1.10
  -6   1  -5  442.76   10.20
  -6   1  -5  452.55   13.00
   6  -1   5  439.16   13.30
   6  -1   5  441.26   12.90
  -7   1  -5    0.50    0.60
   7  -1   5   -0.30    0.60
   7  -1   5    0.00    0.60
  -8   1  -5  482.35   15.70
  -8   1  -5  494.25   12.90
   8  -1   5  520.25   15.50
   8  -1   5  501.25   15.60
   8  -1   5  496.75   16.10
  -9   1  -5   41.00    3.40
  -9   1  -5   43.50    5.40
   9  -1   5   40.90    5.30
   9  -1   5   41.70    4.90
   9  -1   5   35.20    4.80
   6   0  -5  464.85   12.50
   6   0  -5  447.06   16.10
   6   0  -5  450.95   14.90
   6   0  -5  470.95   16.20
  -6   0   5  444.36   16.10
  -6   0   5  469.15   12.80
   5   0  -5    5.70    1.90
   5   0  -5    1.10    1.10
   5   0  -5    3.70    1.10
  -5   0   5    3.90    1.20
   4   0  -5  198.78    7.90
   4   0  -5  199.18    8.70
   4   0  -5  209.08    6.70
  -4   0   5  204.08    6.70
  -4   0   5  195.18    8.70
   3   0  -5   94.99    5.40
   3   0  -5   95.19    4.90
   3   0  -5  101.79    4.10
   3   0  -5  101.79    5.50
  -3   0   5  101.99    4.10
  -3   0   5  101.79    5.60
   2   0  -5    7.90    1.20
   2   0  -5    6.60    1.50
   2   0  -5    8.10    1.70
  -2   0   5    9.60    1.40
  -2   0   5   12.10    2.20
   1   0  -5    2.10    0.90
   1   0  -5    3.90    1.10
  -1   0   5    2.50    0.90
  -1   0   5    2.40    0.70
  -1   0   5    1.20    0.70
   0   0  -5  247.98    7.30
   0   0  -5  250.57    7.70
   0   0   5  245.28    7.70
   0   0   5  256.57    7.40
   0   0   5  255.47    6.90
  -1   0  -5  425.96   10.60
  -1   0  -5  418.56   10.10
  -1   0  -5  416.86    9.60
   1   0   5  387.56   10.30
   1   0   5  416.96    9.70
  -2   0  -5   27.50    2.00
  -2   0  -5   28.20    1.60
  -2   0  -5   26.90    2.10
   2   0   5   28.80    2.20
  -3   0  -5 1583.54  329.07
  -3   0  -5 1206.28   81.99
  -3   0  -5 1176.38   83.89
   3   0   5 1179.88   86.29
   3   0   5 1181.98   83.89
   3   0   5 1381.06  312.77
  -4   0  -5  193.18    6.50
  -4   0  -5  180.08    6.70
   4   0   5  200.48    6.70
   4   0   5  186.58    6.70
  -5   0  -5   25.60    2.80
  -5   0  -5   22.30    1.60
   5   0   5   24.00    3.00
   5   0   5   27.00    2.40
  -6   0  -5    7.30    1.80
  -6   0  -5    5.90    1.20
   6   0   5    4.50    1.40
   6   0   5    4.50    1.50
  -7   0  -5    2.00    0.90
   7   0   5    3.80    1.50
   7   0   5    1.20    1.00
   7   0   5    0.70    0.80
  -8   0  -5  190.48    7.30
  -8   0  -5  182.08    8.60
   8   0   5  190.58    8.90
   8   0   5  195.88    8.50
   8   0   5  194.38    8.80
  -9   0  -5  152.18    6.90
  -9   0  -5  149.09    8.30
   9   0   5  148.79    8.40
   9   0   5  161.28    8.10
   9   0   5  140.19    8.00
   6  -1  -5  141.89    5.60
   6  -1  -5  146.59    8.50
   6  -1  -5  153.68    8.80
   6  -1  -5  150.68    8.10
  -6   1   5  151.28    8.80
   5  -1  -5  183.08    8.90
   5  -1  -5  183.88    8.40
   5  -1  -5  173.68    8.80
   5  -1  -5  179.48    6.00
  -5   1   5  182.08    6.30
   4  -1  -5   45.20    4.00
   4  -1  -5   39.50    3.50
   4  -1  -5   43.90    2.50
   4  -1  -5   40.30    4.50
  -4   1   5   39.90    2.50
   3  -1  -5  314.47   10.30
   3  -1  -5  324.47    8.20
   3  -1  -5  330.17   11.10
   3  -1  -5  330.07   11.00
  -3   1   5  348.67    8.40
  -3   1   5  346.47   11.50
   2  -1  -5   25.20    3.10
   2  -1  -5   22.70    2.80
  -2   1   5   25.80    1.70
  -2   1   5   31.30    3.60
   1  -1  -5   24.00    2.70
   1  -1  -5   17.40    2.20
  -1   1   5   21.10    2.60
  -1   1   5   20.90    1.50
   0  -1  -5 1748.72  108.89
   0  -1  -5 1568.14   94.39
   0  -1  -5 1800.32  113.99
   0   1   5 2134.79  378.16
   0   1   5 1267.47  272.27
  -1  -1  -5   24.90    2.00
  -1  -1  -5   24.30    1.80
   1   1   5   26.80    1.90
   1   1   5   29.20    2.10
  -2  -1  -5  927.51   19.30
  -3  -1  -5   13.20    1.20
  -3  -1  -5   12.40    1.80
  -3  -1  -5   15.50    2.00
   3   1   5   12.00    1.60
   3   1   5   10.80    1.60
  -4  -1  -5  192.38    6.70
  -4  -1  -5  203.78    6.80
   4   1   5  210.18    6.90
   4   1   5  208.88    6.80
  -5  -1  -5    0.20    0.40
  -5  -1  -5    0.00    0.50
   5   1   5   -0.20    0.40
   5   1   5    0.80    0.60
  -6  -1  -5  373.86   11.30
  -6  -1  -5  371.96    9.70
   6   1   5  363.96   11.20
   6   1   5  353.76   11.00
   6   1   5  356.56   11.00
  -7  -1  -5   87.79    4.40
   7   1   5   88.29    5.20
   7   1   5   84.59    5.10
   7   1   5   81.09    5.10
  -8  -1  -5   50.19    3.60
   8   1   5   49.40    4.10
   8   1   5   46.80    4.10
   8   1   5   50.19    4.20
  -9  -1  -5  288.77   10.40
  -9  -1  -5  317.37   12.30
   9   1   5  283.87   11.30
   9   1   5  292.37   11.70
   9   1   5  292.57   11.80
   6  -2  -5  287.97   11.90
   6  -2  -5  280.57   12.30
   6  -2  -5  287.77    7.80
   6  -2  -5  284.27   12.20
  -6   2   5  263.67   12.30
   5  -2  -5   96.79    6.40
   5  -2  -5   91.69    6.20
   5  -2  -5   89.19    6.00
   5  -2  -5   93.59    3.70
  -5   2   5   92.89    6.50
   4  -2  -5   21.90    3.50
   4  -2  -5   19.60    1.50
   4  -2  -5   21.70    3.50
   4  -2  -5   19.60    3.10
   3  -2  -5  350.86   11.70
   3  -2  -5  347.87   11.60
   3  -2  -5  354.36   11.30
  -3   2   5  359.26   12.30
  -3   2   5  357.96    8.00
   2  -2  -5   61.59    4.00
   2  -2  -5   66.49    4.10
  -2   2   5   53.99    3.90
  -2   2   5   59.39    2.20
   1  -2  -5  668.23   15.80
   1  -2  -5  640.94   15.90
  -1   2   5  650.03   12.90
  -1   2   5  663.93   16.40
   0  -2  -5  149.88    5.40
   0  -2  -5  160.08    5.80
   0   2   5  148.09    4.10
   0   2   5  143.29    5.50
   0   2   5  140.89    5.60
  -1  -2  -5 5873.61  659.13
  -1  -2  -5 4167.58  170.98
  -1  -2  -5 4351.86  170.08
   1   2   5 4075.49  168.98
   1   2   5 4001.90  173.48
   1   2   5 3904.51  385.76
  -2  -2  -5  106.99    4.00
  -2  -2  -5   97.79    4.20
  -2  -2  -5   96.29    4.00
   2   2   5  100.59    3.90
  -3  -2  -5 1238.48   89.29
  -3  -2  -5 1244.48   85.29
   3   2   5 1268.97   92.19
   3   2   5 1271.87   88.09
   3   2   5 1696.63  362.96
  -4  -2  -5    1.20    0.70
   4   2   5    1.00    0.60
   4   2   5    0.40    0.50
  -5  -2  -5  102.99    4.90
   5   2   5  111.79    5.10
   5   2   5  113.09    5.20
   5   2   5  110.19    4.80
  -6  -2  -5   95.29    4.30
  -6  -2  -5   90.59    4.90
   6   2   5   85.19    4.60
   6   2   5   98.29    5.10
   6   2   5   98.69    5.00
  -7  -2  -5  999.00   22.00
   7   2   5  972.90   23.40
   7   2   5  992.90   23.30
   7   2   5  993.30   23.50
  -8  -2  -5  420.46   12.40
   8   2   5  407.86   13.30
   8   2   5  402.66   13.10
   8   2   5  408.96   13.30
  -9  -2  -5  301.37   11.90
  -9  -2  -5  297.37   10.70
   9   2   5  290.97   11.60
   9   2   5  295.97   11.60
   9   2   5  300.17   11.50
 -10  -2  -5   84.59    5.80
 -10  -2  -5  100.19    7.00
  10   2   5   89.49    6.40
  10   2   5   89.79    6.60
  10   2   5   90.29    6.60
   6  -3  -5   -0.20    0.90
   6  -3  -5    1.10    1.40
   6  -3  -5   -0.30    0.90
  -6   3   5    0.50    1.00
   5  -3  -5  210.98    9.80
   5  -3  -5  232.38   10.40
   5  -3  -5  233.88   10.40
  -5   3   5  216.38   10.50
   4  -3  -5   49.00    4.30
   4  -3  -5   46.80    4.20
   4  -3  -5   47.20    5.20
   3  -3  -5  163.48    7.30
   3  -3  -5  149.29    7.20
   3  -3  -5  146.89    7.00
   2  -3  -5  421.36   12.70
   2  -3  -5  441.36   12.40
  -2   3   5  431.26   13.20
   1  -3  -5  139.09    5.60
   1  -3  -5  133.49    5.90
  -1   3   5  140.99    6.20
  -1   3   5  131.99    2.70
   0  -3  -5 1116.79   23.00
   0  -3  -5 1114.09   24.20
   0   3   5 1150.88   24.40
  -1  -3  -5  207.58    6.00
  -1  -3  -5  186.38    6.70
   1   3   5  199.08    6.10
  -2  -3  -5  175.98    6.10
  -2  -3  -5  168.88    5.10
   2   3   5  164.28    5.10
  -3  -3  -5   14.70    1.90
  -3  -3  -5   16.00    1.40
   3   3   5   15.80    1.80
   3   3   5   15.00    1.70
  -4  -3  -5 1347.67  326.27
  -4  -3  -5 1239.88   95.69
  -4  -3  -5 1230.58   90.79
   4   3   5 1339.07   95.29
   4   3   5 1455.65  103.59
   4   3   5 1050.19  298.37
  -5  -3  -5   42.80    3.10
   5   3   5   47.20    2.90
   5   3   5   50.89    3.30
   5   3   5   48.70    3.30
  -6  -3  -5  987.60   22.60
   6   3   5  981.70   22.50
   6   3   5  996.30   21.80
   6   3   5  956.70   22.30
  -7  -3  -5  384.96   11.30
  -7  -3  -5  383.46   12.10
   7   3   5  389.26   12.10
   7   3   5  391.26   11.70
  -8  -3  -5  365.66   11.50
  -8  -3  -5  351.16   12.20
   8   3   5  369.56   12.30
   8   3   5  349.87   11.80
  -9  -3  -5  143.69    7.70
   9   3   5  134.79    7.30
   9   3   5  152.78    7.90
   9   3   5  137.89    7.50
 -10  -3  -5  233.58   10.90
 -10  -3  -5  225.28   10.00
  10   3   5  248.38   11.10
  10   3   5  219.98   10.30
  10   3   5  251.47   11.00
   5  -4  -5   36.80    5.00
   5  -4  -5   25.60    3.90
   5  -4  -5   41.40    5.40
  -5   4   5   31.10    4.60
   4  -4  -5  103.09    6.30
   4  -4  -5   94.39    6.10
   4  -4  -5   92.49    6.10
  -4   4   5   90.89    6.30
   3  -4  -5   14.00    2.60
   3  -4  -5    9.00    2.10
   3  -4  -5   13.70    2.70
   2  -4  -5 1064.99   24.00
   2  -4  -5 1066.49   24.80
  -2   4   5 1028.10   25.10
   1  -4  -5  265.27    9.40
   1  -4  -5  284.77    8.70
  -1   4   5  286.07    9.80
   0  -4  -5  308.37   10.00
   0  -4  -5  335.77    9.00
   0   4   5  327.67   10.30
   0   4   5  342.07    6.30
   0   4   5  338.27    6.20
  -1  -4  -5  345.77   10.30
  -1  -4  -5  351.46    8.60
   1   4   5  358.66    7.80
  -2  -4  -5   61.69    2.60
  -2  -4  -5   59.09    3.60
   2   4   5   60.49    2.70
   2   4   5   59.59    2.70
  -3  -4  -5  235.18    6.20
  -3  -4  -5  240.98    7.60
   3   4   5  236.98    6.20
   3   4   5  238.78    6.90
  -4  -4  -5   26.90    2.90
   4   4   5   24.50    2.10
   4   4   5   19.80    1.60
  -5  -4  -5  323.87    9.90
   5   4   5  324.27   10.00
   5   4   5  340.97   10.00
   5   4   5  335.57    8.90
  -6  -4  -5  209.68    7.80
   6   4   5  213.88    7.90
   6   4   5  195.78    6.90
   6   4   5  215.78    8.00
  -7  -4  -5  721.23   18.10
  -7  -4  -5  707.53   18.40
   7   4   5  747.83   17.80
   7   4   5  692.03   18.30
  -8  -4  -5   70.69    4.70
  -8  -4  -5   71.79    5.00
   8   4   5   79.79    4.90
   8   4   5   82.39    5.30
  -9  -4  -5    3.10    1.60
  -9  -4  -5    0.70    0.90
   9   4   5    1.00    1.10
   9   4   5    1.70    1.20
   9   4   5    2.10    1.30
 -10  -4  -5   18.10    3.20
 -10  -4  -5   17.20    3.30
  10   4   5   15.00    3.30
  10   4   5   22.60    3.80
  10   4   5   21.60    3.70
   5  -5  -5   24.10    3.80
   5  -5  -5   33.50    4.80
   5  -5  -5   32.90    4.70
  -5   5   5   26.40    4.30
   4  -5  -5   77.09    5.80
   4  -5  -5   93.09    6.10
   4  -5  -5   83.59    6.00
  -4   5   5   92.29    6.50
   3  -5  -5  205.98    9.10
   3  -5  -5  204.98    8.50
   3  -5  -5  202.38    9.00
   2  -5  -5  548.25   14.80
   2  -5  -5  578.44   16.20
  -2   5   5  544.65   16.20
   1  -5  -5  249.48    9.30
   1  -5  -5  248.78    8.10
  -1   5   5  245.98    9.40
   0  -5  -5   56.29    3.90
   0  -5  -5   56.79    3.10
  -1  -5  -5   56.99    3.90
  -1  -5  -5   61.69    2.70
   1   5   5   63.29    2.40
  -2  -5  -5  246.58    6.10
  -2  -5  -5  237.58    8.40
   2   5   5  261.67    6.70
  -3  -5  -5    5.40    1.40
  -3  -5  -5    6.00    0.90
   3   5   5    6.20    1.20
   3   5   5    6.30    0.90
  -4  -5  -5 1001.00   21.90
   4   5   5 1002.00   19.40
   4   5   5  979.60   21.30
  -5  -5  -5    7.20    1.60
   5   5   5    4.30    0.90
   5   5   5    3.00    1.00
   5   5   5    2.70    1.10
  -6  -5  -5  167.88    7.00
   6   5   5  169.58    6.00
   6   5   5  170.78    7.10
   6   5   5  177.68    7.20
  -7  -5  -5   70.89    4.70
   7   5   5   75.29    4.70
   7   5   5   75.19    4.20
  -8  -5  -5   87.29    5.50
   8   5   5   93.19    5.10
   8   5   5   93.99    5.70
  -9  -5  -5   -0.30    0.70
  -9  -5  -5    1.10    1.20
   9   5   5    0.70    1.00
   9   5   5   -0.20    0.70
   9   5   5    0.30    0.70
 -10  -5  -5   19.20    3.60
 -10  -5  -5   19.00    3.60
  10   5   5   22.20    3.90
  10   5   5   21.10    3.80
  10   5   5   17.60    3.30
   5  -6  -5   32.20    4.90
   4  -6  -5  165.28    8.80
   4  -6  -5  171.48    8.50
   4  -6  -5  168.08    8.80
  -4   6   5  176.18    9.30
   3  -6  -5   54.99    4.70
   3  -6  -5   63.19    5.00
   3  -6  -5   53.09    4.30
  -3   6   5   50.59    4.70
   2  -6  -5   72.49    5.10
   2  -6  -5   72.49    4.50
   1  -6  -5  548.85   15.90
   1  -6  -5  552.24   13.90
   0  -6  -5   65.29    4.50
   0  -6  -5   61.59    3.20
  -1  -6  -5   27.70    3.50
  -1  -6  -5   27.40    1.70
   1   6   5   25.60    1.50
  -2  -6  -5   98.89    5.40
  -2  -6  -5  104.29    3.00
   2   6   5  100.39    3.80
  -3  -6  -5  305.57    9.40
   3   6   5  315.87    8.60
  -4  -6  -5  112.89    5.20
   4   6   5  118.09    5.00
   4   6   5  117.59    3.30
  -5  -6  -5 1796.02   35.70
   5   6   5 1737.63   32.50
   5   6   5 1723.43   35.50
  -6  -6  -5  325.17   10.40
   6   6   5  310.77   10.30
   6   6   5  332.97    8.70
   6   6   5  332.07   10.70
  -7  -6  -5   86.69    5.10
   7   6   5   75.49    4.80
   7   6   5   77.39    4.00
  -8  -6  -5   71.09    5.20
  -8  -6  -5   89.19    5.60
   8   6   5  105.29    5.20
   8   6   5   92.49    5.90
   8   6   5   95.79    5.80
  -9  -6  -5   14.00    2.90
  -9  -6  -5   14.50    2.80
   9   6   5   22.30    3.50
   9   6   5   17.90    3.30
   9   6   5   17.30    2.80
   4  -7  -5  166.28    8.50
   4  -7  -5  169.48    9.20
   4  -7  -5  152.78    8.70
  -4   7   5  165.68    9.40
   3  -7  -5  376.76   13.60
   3  -7  -5  353.06   12.20
   3  -7  -5  340.67   13.10
  -3   7   5  362.86   13.80
   2  -7  -5   44.80    3.50
   2  -7  -5   39.60    4.70
   1  -7  -5   14.40    2.60
   1  -7  -5   22.20    2.60
   0  -7  -5  116.89    4.50
   0  -7  -5  109.89    6.30
  -1  -7  -5   21.50    1.40
  -1  -7  -5   12.30    2.20
   1   7   5   17.50    1.30
  -2  -7  -5  968.40   17.50
  -2  -7  -5 1000.10   23.90
   2   7   5  988.90   20.20
  -3  -7  -5   -0.40    0.50
   3   7   5    0.50    0.60
  -4  -7  -5  430.16   12.10
   4   7   5  447.26   11.90
  -5  -7  -5  210.18    7.80
   5   7   5  201.08    7.70
   5   7   5  215.78    5.00
  -6  -7  -5  176.78    7.30
   6   7   5  189.58    7.80
   6   7   5  191.58    5.50
  -7  -7  -5  181.18    7.80
   7   7   5  190.68    8.00
   7   7   5  182.08    6.20
  -8  -7  -5  156.28    8.10
  -8  -7  -5  168.58    7.80
   8   7   5  159.78    8.10
   8   7   5  164.78    6.50
   8   7   5  157.58    7.70
  -9  -7  -5  279.57   11.00
  -9  -7  -5  252.07   11.20
   9   7   5  282.57    9.80
   9   7   5  266.07   11.40
   9   7   5  287.27   11.30
   3  -8  -5  138.09    8.00
   3  -8  -5  137.89    7.10
   3  -8  -5  125.99    7.80
   2  -8  -5   99.39    6.50
   2  -8  -5  102.99    6.70
   2  -8  -5  106.09    5.50
   1  -8  -5  193.38    9.20
   1  -8  -5  196.08    7.00
   0  -8  -5  144.69    7.60
   0  -8  -5  156.68    5.30
  -1  -8  -5   48.10    2.00
  -1  -8  -5   48.90    4.20
   1   8   5   46.30    2.20
  -2  -8  -5  268.27   10.40
   2   8   5  273.07    7.80
  -3  -8  -5 1111.79   23.80
  -3  -8  -5 1108.79   25.00
   3   8   5 1167.58   24.20
  -4  -8  -5   91.39    4.90
  -4  -8  -5  100.89    5.00
   4   8   5   94.39    4.90
  -5  -8  -5  175.98    7.40
  -5  -8  -5  183.48    7.30
   5   8   5  180.48    7.40
  -6  -8  -5   30.20    3.40
  -6  -8  -5   35.00    4.00
   6   8   5   29.00    1.60
   6   8   5   29.30    1.50
  -7  -8  -5    0.40    0.80
   7   8   5    0.10    0.70
   7   8   5    0.70    0.50
  -8  -8  -5   20.70    3.20
   8   8   5   14.30    2.00
   8   8   5   13.10    2.60
  -9  -8  -5  292.77   12.40
  -9  -8  -5  279.47   11.10
   9   8   5  279.17   11.80
   9   8   5  274.57   11.20
   9   8   5  270.17    9.30
   2  -9  -5   39.10    5.30
   2  -9  -5   25.60    3.30
   2  -9  -5   29.20    4.30
   1  -9  -5   29.20    4.30
   1  -9  -5   38.80    2.90
   0  -9  -5  492.35   11.50
   0  -9  -5  494.85   16.30
  -1  -9  -5  373.06    7.20
  -1  -9  -5  369.66   13.40
  -1  -9  -5  384.16    7.30
   1   9   5  367.56    8.90
  -2  -9  -5  380.66    9.90
  -2  -9  -5  381.46   13.40
   2   9   5  377.56   10.00
  -3  -9  -5   29.30    3.00
  -3  -9  -5   23.30    3.40
  -3  -9  -5   34.60    3.80
   3   9   5   28.30    2.50
  -4  -9  -5   77.89    4.50
  -4  -9  -5   77.29    4.60
   4   9   5   95.79    5.00
  -5  -9  -5    1.50    1.00
  -5  -9  -5    2.60    1.20
   5   9   5    3.20    1.30
  -6  -9  -5  239.38    8.90
  -6  -9  -5  238.48    9.60
  -7  -9  -5    1.50    1.10
  -7  -9  -5   -0.20    0.70
   7   9   5    1.90    0.60
   7   9   5    1.70    0.50
   7   9   5    2.30    1.50
  -8  -9  -5  155.98    7.60
   8   9   5  157.98    8.40
   8   9   5  156.08    5.40
   8   9   5  158.98    5.60
   1 -10  -5    3.00    1.10
   1 -10  -5    4.00    2.00
   1 -10  -5    4.00    1.20
   1 -10  -5    3.90    1.80
   0 -10  -5   37.30    2.10
   0 -10  -5   54.69    6.40
   0 -10  -5   39.20    2.20
  -1 -10  -5  107.89    7.10
  -2 -10  -5   20.20    3.60
  -2 -10  -5   19.50    2.30
   2  10   5   25.20    2.70
  -3 -10  -5  212.08    8.30
  -3 -10  -5  227.18   10.20
  -3 -10  -5  193.38    7.30
   3  10   5  193.78    7.40
  -4 -10  -5   76.59    4.70
  -4 -10  -5   88.99    5.00
   4  10   5   82.09    4.90
  -5 -10  -5    9.50    2.20
  -5 -10  -5   12.30    2.20
  -6 -10  -5  123.39    6.20
  -6 -10  -5  130.59    7.00
   6  10   5  138.69    7.20
  -7 -10  -5  199.58    8.20
  -7 -10  -5  169.88    8.70
   7  10   5  179.38    8.80
  -8 -10  -5   24.70    3.50
   0 -11  -5  118.89    7.90
   0 -11  -5  132.99    3.50
   0 -11  -5  131.19    3.50
  -1 -11  -5   35.10    4.60
  -2 -11  -5   19.50    3.50
  -2 -11  -5   18.60    2.30
   2  11   5   18.00    2.30
  -3 -11  -5   69.19    4.20
  -3 -11  -5   68.29    4.70
  -3 -11  -5   70.39    5.80
   3  11   5   74.09    4.40
  -4 -11  -5   63.49    4.40
  -4 -11  -5   60.69    4.30
  -5 -11  -5   45.50    3.70
  -5 -11  -5   42.90    3.90
   5  11   5   42.20    4.80
  -6 -11  -5  151.48    7.80
  -6 -11  -5  151.88    7.00
   6  11   5  137.19    7.60
  -3 -12  -5  118.39    6.40
  -3 -12  -5  137.19    8.60
  -3 -12  -5  116.39    5.80
   3  12   5  122.69    6.00
  -4 -12  -5   21.50    3.20
  -4 -12  -5   20.20    3.00
  -4 -12  -5   17.20    3.60
   4  12   5   19.20    3.00
   2   9  -6   31.00    4.00
  -2  -9   6   28.90    3.60
  -2  -9   6   39.40    4.90
  -2  -9   6   28.70    4.20
   1   9  -6  186.38    8.70
  -1  -9   6  162.98    8.90
  -1  -9   6  184.58    8.70
  -1  -9   6  175.38    7.30
   0   9  -6   56.09    4.60
   0  -9   6   54.19    4.60
   0  -9   6   43.80    5.00
   0  -9   6   47.30    3.30
  -1   9  -6  275.87   11.00
   1  -9   6  293.47    8.20
   1  -9   6  301.87   11.30
   1  -9   6  292.47   12.00
   1  -9   6  286.57    8.30
  -2   9  -6   70.09    5.30
   2  -9   6   72.89    5.40
   2  -9   6   66.59    2.40
   2  -9   6   69.79    5.50
   2  -9   6   64.69    2.40
   4   8  -6  154.28    8.70
  -4  -8   6  144.99    8.40
   3   8  -6  108.19    6.80
  -3  -8   6  108.79    7.10
  -3  -8   6  110.79    6.50
   2   8  -6  263.67   10.70
  -2  -8   6  281.87   11.10
  -2  -8   6  275.87   10.10
  -2  -8   6  262.97   11.20
   1   8  -6   16.70    3.00
  -1  -8   6   16.50    2.50
  -1  -8   6   15.20    2.90
   0   8  -6   54.39    4.40
   0  -8   6   58.19    3.50
   0  -8   6   57.19    4.80
   0  -8   6   45.60    4.10
  -1   8  -6    6.00    1.80
   1  -8   6    7.80    2.10
   1  -8   6    7.20    2.10
   1  -8   6    7.30    1.30
  -2   8  -6  262.87   10.70
   2  -8   6  267.67    6.00
   2  -8   6  270.37    6.00
   2  -8   6  260.57   10.40
   2  -8   6  279.87   11.00
   3  -8   6   11.30    2.60
   3  -8   6   11.90    1.70
   3  -8   6   15.10    3.00
   4  -8   6  254.67   10.90
   4  -8   6  263.97   11.10
   4  -8   6  262.97    8.60
   4   7  -6   62.09    5.20
   4   7  -6   54.79    4.90
  -4  -7   6   59.79    5.10
  -4  -7   6   57.49    4.90
   3   7  -6   76.99    5.60
   3   7  -6   91.49    6.10
  -3  -7   6  103.39    6.50
  -3  -7   6   81.39    5.40
  -2  -7   6  270.97    9.80
  -2  -7   6  271.37   10.70
  -2  -7   6  287.07   11.10
  -1  -7   6   26.10    3.00
  -1  -7   6   34.80    4.40
  -1  -7   6   30.10    4.00
   0  -7   6  737.53   20.10
   0  -7   6  734.73   16.80
   0  -7   6  709.93   19.20
   1  -7   6  168.78    8.00
   1  -7   6  167.58    5.30
   1  -7   6  156.88    7.40
  -2   7  -6    0.20    0.50
   2  -7   6    1.50    0.40
   2  -7   6    1.50    1.10
   2  -7   6    1.70    0.40
   2  -7   6    0.40    0.80
  -3   7  -6  182.78    8.70
   3  -7   6  196.78    6.40
   3  -7   6  204.98    8.90
   3  -7   6  198.88    8.90
  -4   7  -6   16.00    2.50
   4  -7   6   13.80    2.10
   4  -7   6   15.20    3.00
   4  -7   6   14.50    2.90
  -5   7  -6  116.59    6.20
   5  -7   6  120.49    5.90
   5  -7   6  119.89    7.00
   5  -7   6  104.39    6.80
   5   6  -6  206.58    6.40
   5   6  -6  210.08    9.70
   5   6  -6  204.38    9.90
  -5  -6   6  193.78    9.20
  -5  -6   6  204.78   10.00
   4   6  -6  202.38    9.40
   4   6  -6  195.18    9.10
   4   6  -6  189.68    5.30
  -4  -6   6  203.68    9.10
  -4  -6   6  187.88    9.00
   3   6  -6  202.78    9.00
   3   6  -6  194.78    9.00
  -3  -6   6  208.98    8.80
  -3  -6   6  215.28    9.20
  -2  -6   6    8.90    2.30
  -2  -6   6    8.40    2.20
  -2  -6   6    8.70    2.00
   1   6  -6   48.90    4.10
  -1  -6   6   44.70    3.90
  -1  -6   6   49.99    4.00
  -1  -6   6   47.10    3.30
   0   6  -6  109.39    6.00
   0  -6   6  117.29    4.80
   0  -6   6  113.29    6.20
   0  -6   6  109.29    5.90
  -1   6  -6  167.18    4.30
  -1   6  -6  169.28    7.60
   1  -6   6  164.48    7.40
   1  -6   6  166.28    7.60
   1  -6   6  160.28    5.10
  -2   6  -6  396.96   15.00
  -2   6  -6  423.56   10.00
   2  -6   6  418.96   13.00
   2  -6   6  409.26   13.20
  -3   6  -6   12.40    1.90
   3  -6   6   14.90    2.80
   3  -6   6    8.90    2.20
   3  -6   6   10.20    1.60
  -4   6  -6  283.67    9.20
   4  -6   6  272.37   10.60
   4  -6   6  260.37    8.50
   4  -6   6  273.67   10.50
  -5   6  -6    0.30    0.80
   5  -6   6    0.70    0.80
   5  -6   6   -0.10    0.60
   5  -6   6   -0.60    0.50
  -6   6  -6  136.69    7.20
   6  -6   6  152.08    7.20
   6  -6   6  139.89    8.00
   5   5  -6   39.90    5.00
   5   5  -6   30.80    4.20
   5   5  -6   37.70    2.90
  -5  -5   6   35.30    4.70
  -5  -5   6   40.40    4.70
   4   5  -6   -0.30    0.50
   4   5  -6    0.60    1.00
   4   5  -6   -0.40    0.60
  -4  -5   6    1.10    1.10
  -4  -5   6    1.10    1.10
   3   5  -6    0.40    0.60
   3   5  -6    3.30    1.40
   3   5  -6    2.30    0.70
  -3  -5   6    0.60    0.80
  -3  -5   6    1.20    1.10
   2   5  -6  341.97    7.70
   2   5  -6  340.57   12.90
   2   5  -6  359.56    7.80
  -2  -5   6  356.26   11.80
  -2  -5   6  352.16   12.10
  -2  -5   6  345.57   11.00
   1   5  -6   65.69    4.50
   1   5  -6   61.59    2.10
   1   5  -6   62.89    2.10
  -1  -5   6   58.99    4.30
  -1  -5   6   58.19    4.20
  -1  -5   6   67.69    3.90
   0   5  -6    7.30    0.80
   0   5  -6    4.60    1.50
   0  -5   6    6.40    1.80
   0  -5   6    9.20    2.00
   0  -5   6    5.30    1.20
  -1   5  -6  573.24   15.80
  -1   5  -6  579.14   12.10
   1  -5   6  567.74   15.80
   1  -5   6  576.14   12.40
   1  -5   6  579.54   15.70
  -2   5  -6  262.47    7.20
  -2   5  -6  247.68    9.40
   2  -5   6  251.47    9.30
   2  -5   6  244.68    9.10
  -3   5  -6  288.87    8.50
  -3   5  -6  284.37   10.40
   3  -5   6  288.87    8.30
   3  -5   6  310.67   10.50
   3  -5   6  275.47   10.10
  -4   5  -6   25.30    2.90
   4  -5   6   24.90    3.30
   4  -5   6   27.90    3.00
  -5   5  -6  198.08    7.90
   5  -5   6  180.88    7.30
   5  -5   6  186.78    8.60
   6  -5   6   32.80    4.30
   6  -5   6   32.70    3.90
  -7   5  -6  280.27   11.40
   7  -5   6  302.37   11.40
   7  -5   6  291.57   12.30
   6   4  -6   81.39    6.30
   6   4  -6   79.29    5.50
   6   4  -6   75.79    4.90
  -6  -4   6   72.49    5.30
  -6  -4   6   68.19    6.00
   5   4  -6  257.37   10.10
   5   4  -6  276.37    9.00
   5   4  -6  249.18   11.00
  -5  -4   6  270.37   10.30
  -5  -4   6  246.78   11.00
   4   4  -6    1.90    1.20
   4   4  -6    0.80    0.90
   4   4  -6    0.80    0.80
   4   4  -6    1.20    0.90
  -4  -4   6    0.90    0.90
  -4  -4   6   -0.40    0.70
   3   4  -6   11.70    1.70
   3   4  -6    9.30    2.00
   3   4  -6   13.40    2.50
  -3  -4   6   13.60    2.40
  -3  -4   6   11.10    2.20
   2   4  -6    5.60    1.50
   2   4  -6    8.90    1.30
  -2  -4   6    9.00    2.20
  -2  -4   6    7.40    1.70
  -2  -4   6    8.40    1.90
   1   4  -6   14.00    2.40
   1   4  -6   19.80    1.50
  -1  -4   6   23.60    3.20
  -1  -4   6   18.90    2.40
  -1  -4   6   15.20    2.50
   0   4  -6  517.05   11.20
   0   4  -6  547.75   14.80
   0  -4   6  535.45   14.70
   0  -4   6  530.35   12.70
   0  -4   6  520.55   14.30
  -1   4  -6   -0.10    0.60
  -1   4  -6    0.50    0.40
   1  -4   6    0.20    0.60
   1  -4   6    0.00    0.50
   1  -4   6    0.00    0.40
  -2   4  -6  403.16   12.30
  -2   4  -6  397.56    9.90
   2  -4   6  407.96   12.10
   2  -4   6  405.56   12.00
  -3   4  -6  306.07    8.70
  -3   4  -6  298.67   10.40
   3  -4   6  298.57    8.50
   3  -4   6  298.07   10.20
  -4   4  -6  218.08    8.90
  -4   4  -6  228.18    7.70
   4  -4   6  213.18    7.40
   4  -4   6  208.28    8.60
  -5   4  -6    6.10    1.70
   5  -4   6    5.60    1.50
   5  -4   6    4.00    1.50
   6  -4   6   96.19    6.10
   6  -4   6   82.99    5.10
  -7   4  -6  165.28    8.20
   7  -4   6  160.88    7.90
   7  -4   6  159.08    8.60
  -8   4  -6   71.49    5.80
   8  -4   6   67.39    5.50
   8  -4   6   66.89    5.90
   6   3  -6  112.39    7.60
   6   3  -6  109.89    6.10
   6   3  -6  107.99    6.20
   6   3  -6  120.79    7.80
  -6  -3   6  102.69    6.10
  -6  -3   6  109.89    7.50
   5   3  -6   29.70    3.70
   5   3  -6   28.10    3.40
   5   3  -6   27.00    4.00
   5   3  -6   32.80    4.70
  -5  -3   6   31.30    3.70
  -5  -3   6   21.00    3.70
   4   3  -6  473.25   13.70
   4   3  -6  445.96   14.90
   4   3  -6  473.95   15.00
   4   3  -6  486.05   12.90
  -4  -3   6  466.75   13.60
  -4  -3   6  462.55   14.90
   3   3  -6   50.99    4.00
   3   3  -6   48.00    3.60
   3   3  -6   53.59    3.20
  -3  -3   6   52.29    4.10
  -3  -3   6   60.69    4.00
   2   3  -6  807.62   19.50
   2   3  -6  804.22   20.40
   2   3  -6  825.72   17.60
  -2  -3   6  796.52   19.60
  -2  -3   6  813.92   19.40
  -2  -3   6  812.82   20.90
   1   3  -6  970.80   21.20
   1   3  -6  981.90   22.60
  -1  -3   6  843.42   21.20
  -1  -3   6 1001.20   22.80
  -1  -3   6  956.50   21.20
   0   3  -6   12.60    1.50
   0   3  -6   10.50    1.60
   0   3  -6   10.10    2.00
   0  -3   6    8.10    1.80
   0  -3   6    9.80    1.50
   0  -3   6    9.40    1.70
  -1   3  -6  655.53   14.00
  -1   3  -6  652.63   16.50
   1  -3   6  631.44   13.60
   1  -3   6  615.64   16.10
   1  -3   6  687.03   16.30
  -2   3  -6  307.57    8.10
  -2   3  -6  291.07    9.80
   2  -3   6  299.37    9.70
   2  -3   6  304.77    6.00
   2  -3   6  295.47    9.50
  -3   3  -6  162.18    7.00
  -3   3  -6  169.08    5.90
   3  -3   6  152.38    5.60
   3  -3   6  154.18    6.70
  -4   3  -6   57.39    3.60
  -4   3  -6   63.39    4.30
   4  -3   6   56.19    3.50
   4  -3   6   59.49    4.10
  -5   3  -6  585.34   15.40
   5  -3   6  594.64   15.20
   5  -3   6  570.04   16.30
  -6   3  -6  293.27   10.80
   6  -3   6  313.27   10.50
   6  -3   6  311.17   11.40
  -7   3  -6  305.97   11.50
   7  -3   6  317.07   11.40
   7  -3   6  327.67   12.50
  -8   3  -6   53.59    5.80
   8  -3   6   61.39    5.40
   8  -3   6   56.89    4.90
   6   2  -6    0.80    1.20
   6   2  -6    1.30    1.00
   6   2  -6    1.60    1.50
   6   2  -6    0.50    1.10
  -6  -2   6   -0.40    0.80
  -6  -2   6    0.00    0.80
   5   2  -6   25.50    3.10
   5   2  -6   19.60    3.40
   5   2  -6   31.00    3.80
   5   2  -6   16.40    3.10
  -5  -2   6   26.50    3.30
  -5  -2   6   16.00    3.00
   4   2  -6   21.70    2.90
   4   2  -6   16.10    2.80
   4   2  -6   22.90    2.90
   4   2  -6   16.90    2.90
  -4  -2   6   18.70    3.20
  -4  -2   6   27.60    3.10
   3   2  -6  138.69    5.90
   3   2  -6  134.69    5.70
   3   2  -6  143.89    6.80
  -3  -2   6  127.79    5.70
  -3  -2   6  123.89    6.50
   2   2  -6  485.95   13.60
   2   2  -6  491.15   14.20
  -2  -2   6  490.25   12.90
  -2  -2   6  488.75   13.70
  -2  -2   6  473.85   14.40
   1   2  -6  623.14   14.90
   1   2  -6  594.34   15.80
  -1  -2   6  597.64   16.00
  -1  -2   6  588.74   14.70
  -1  -2   6  606.44   15.00
   0   2  -6  868.51   18.90
   0   2  -6  876.41   18.50
   0   2  -6  890.51   20.70
   0  -2   6  915.41   20.00
   0  -2   6  898.31   20.80
   0  -2   6  875.31   19.00
  -1   2  -6   46.00    2.60
  -1   2  -6   45.20    2.30
  -1   2  -6   50.29    3.40
   1  -2   6   45.70    2.40
   1  -2   6   48.60    3.30
   1  -2   6   42.40    3.00
  -2   2  -6  486.25   11.60
  -2   2  -6  467.65    9.80
   2  -2   6  511.35    9.90
  -3   2  -6   58.39    3.90
  -3   2  -6   60.99    3.30
   3  -2   6   64.09    3.90
   3  -2   6   56.69    3.20
  -4   2  -6  396.26   10.90
  -4   2  -6  388.26   11.90
   4  -2   6  373.56   11.60
   4  -2   6  401.46   10.90
  -5   2  -6   38.50    3.20
   5  -2   6   38.90    3.10
   5  -2   6   42.10    4.40
  -6   2  -6  500.25   14.30
   6  -2   6  500.25   15.00
   6  -2   6  468.15   13.80
  -7   2  -6  150.58    4.10
  -7   2  -6  140.79    7.30
   7  -2   6  155.48    7.40
   7  -2   6  153.58    7.90
  -8   2  -6  373.16    9.10
  -8   2  -6  378.86   13.50
   8  -2   6  366.76   13.10
   8  -2   6  355.96   13.70
   6   1  -6   72.29    6.10
   6   1  -6   59.09    4.10
   6   1  -6   67.39    5.90
   6   1  -6   67.89    5.20
  -6  -1   6   60.89    5.70
  -6  -1   6   68.49    4.40
   5   1  -6   25.00    4.00
   5   1  -6   18.00    3.50
   5   1  -6   27.40    3.10
   5   1  -6   34.10    4.00
  -5  -1   6   26.30    3.90
  -5  -1   6   23.30    2.90
   4   1  -6  489.65   12.90
   4   1  -6  493.75   15.40
   4   1  -6  489.45   13.90
  -4  -1   6  488.75   13.00
  -4  -1   6  471.35   15.30
   3   1  -6   69.09    4.20
   3   1  -6   58.89    4.40
   3   1  -6   68.29    3.80
  -3  -1   6   70.39    3.80
  -3  -1   6   64.09    4.60
   2   1  -6   94.99    5.10
   2   1  -6   98.09    5.40
  -2  -1   6   96.89    5.20
  -2  -1   6   95.99    4.40
   1   1  -6  331.57   10.60
   1   1  -6  344.97   10.00
  -1  -1   6  343.67   10.80
  -1  -1   6  317.57    9.90
  -1  -1   6  339.97    9.40
   0   1  -6   84.29    3.90
   0   1  -6   89.19    4.60
   0  -1   6   92.09    4.10
   0  -1   6   86.59    4.10
   0  -1   6   84.59    4.60
  -1   1  -6   60.29    3.60
  -1   1  -6   61.19    3.10
  -1   1  -6   59.19    2.80
   1  -1   6   59.29    2.90
   1  -1   6   53.29    3.40
   1  -1   6   65.79    3.50
  -2   1  -6  125.29    3.70
  -2   1  -6  123.89    4.70
  -2   1  -6  117.79    5.30
   2  -1   6  127.49    5.40
  -3   1  -6  399.26    7.80
  -3   1  -6  380.16   11.20
  -3   1  -6  404.06   10.50
   3  -1   6  402.06   11.30
   3  -1   6  405.76   10.60
  -4   1  -6  316.77   10.10
  -4   1  -6  302.97    9.20
   4  -1   6  323.47   10.00
   4  -1   6  313.47    9.30
  -5   1  -6  995.30   22.60
  -5   1  -6 1003.10   17.90
  -5   1  -6 1002.70   17.90
   5  -1   6  995.70   23.30
   5  -1   6 1017.90   22.60
  -6   1  -6  186.58    4.70
  -6   1  -6  177.08    7.50
   6  -1   6  178.88    7.90
   6  -1   6  167.58    7.20
  -7   1  -6  136.49    4.50
   7  -1   6  131.79    6.70
   7  -1   6  126.89    6.90
  -8   1  -6    1.00    0.60
  -8   1  -6    0.80    1.00
   8  -1   6   -0.20    0.70
   8  -1   6   -0.50    0.60
   8  -1   6    0.70    0.90
  -9   1  -6  135.79    5.70
  -9   1  -6  154.68    8.60
   9  -1   6  142.89    8.50
   9  -1   6  136.39    8.00
   9  -1   6  163.38    8.40
   6   0  -6   -0.70    0.90
   6   0  -6    0.70    1.10
   6   0  -6    0.30    0.70
   6   0  -6    0.60    1.20
  -6   0   6    0.60    0.80
  -6   0   6    0.80    1.20
   5   0  -6   30.00    4.40
   5   0  -6   30.70    4.50
   5   0  -6   26.90    2.40
   5   0  -6   33.10    4.20
  -5   0   6   24.60    4.10
  -5   0   6   32.90    2.70
   4   0  -6  158.58    7.20
   4   0  -6  161.78    5.90
   4   0  -6  146.79    7.70
  -4   0   6  142.09    7.70
  -4   0   6  148.69    5.70
   3   0  -6  756.82   18.50
   3   0  -6  745.63   19.70
   3   0  -6  750.62   19.50
  -3   0   6  712.73   19.50
  -3   0   6  740.23   16.60
   2   0  -6   98.49    5.40
   2   0  -6   93.69    5.20
  -2   0   6   96.89    5.30
  -2   0   6   92.79    4.00
   1   0  -6  182.18    7.00
   1   0  -6  194.38    7.40
  -1   0   6  191.48    7.30
  -1   0   6  193.18    7.70
  -1   0   6  204.78    6.30
   0   0  -6   17.10    2.20
   0   0  -6   18.20    2.20
   0   0   6   19.70    1.70
   0   0   6   19.90    2.40
   0   0   6   11.90    1.80
  -1   0  -6    2.30    0.80
  -1   0  -6    2.20    0.80
  -1   0  -6    2.10    0.70
   1   0   6    1.30    0.70
   1   0   6    1.70    0.80
  -2   0  -6    1.10    0.50
  -2   0  -6    0.50    0.50
  -2   0  -6    0.60    0.50
   2   0   6   -0.30    0.30
  -3   0  -6   13.50    1.90
  -3   0  -6   11.20    1.00
  -3   0  -6   10.50    1.60
   3   0   6   14.00    2.10
   3   0   6   14.30    2.00
  -4   0  -6   92.79    4.40
  -4   0  -6   90.09    4.60
  -4   0  -6   85.39    2.90
   4   0   6   93.49    4.70
   4   0   6   96.49    4.60
  -5   0  -6  273.37    6.50
  -5   0  -6  253.67    8.60
   5   0   6  253.77    8.80
   5   0   6  247.88    8.50
  -6   0  -6  309.87   10.30
  -6   0  -6  320.37    8.00
   6   0   6  305.47   10.20
   6   0   6  301.97   10.50
  -7   0  -6  144.29    5.20
   7   0   6  148.69    7.00
   7   0   6  133.89    6.90
  -8   0  -6    5.80    1.90
  -8   0  -6    8.10    1.70
   8   0   6    3.40    1.40
   8   0   6    7.90    2.20
   8   0   6    2.60    1.30
  -9   0  -6   30.50    3.40
  -9   0  -6   23.30    3.70
   9   0   6   28.20    4.20
   9   0   6   25.20    4.00
   9   0   6   19.40    3.60
   6  -1  -6  248.28   10.90
   6  -1  -6  221.98    7.40
   6  -1  -6  208.98   10.80
   6  -1  -6  230.58   11.30
  -6   1   6  245.08   11.90
   5  -1  -6  114.89    6.80
   5  -1  -6  105.79    7.00
   5  -1  -6  109.29    7.10
   5  -1  -6  114.29    4.70
  -5   1   6  104.69    7.20
  -5   1   6  111.79    4.70
   4  -1  -6  370.56   13.00
   4  -1  -6  331.27   11.80
   4  -1  -6  366.76   13.00
  -4   1   6  346.07    9.30
   3  -1  -6  712.53   19.10
   3  -1  -6  702.53   18.90
   3  -1  -6  701.03   18.20
  -3   1   6  714.13   19.40
  -3   1   6  685.03   15.10
   2  -1  -6  123.59    6.10
   2  -1  -6  111.49    5.80
  -2   1   6  124.29    4.30
  -2   1   6  115.49    6.10
   1  -1  -6  175.68    7.00
   1  -1  -6  191.28    7.30
  -1   1   6  187.58    5.60
  -1   1   6  188.78    7.40
   0  -1  -6  336.17    9.80
   0  -1  -6  364.16   10.30
   0   1   6  360.96    8.70
   0   1   6  343.97   10.10
   0   1   6  344.17   10.30
  -1  -1  -6  317.27    9.00
  -1  -1  -6  303.37    8.50
   1   1   6  316.17    9.20
   1   1   6  283.97    8.50
  -2  -1  -6    6.00    1.30
  -2  -1  -6    4.20    1.00
  -2  -1  -6    3.60    1.00
   2   1   6    2.80    0.90
  -3  -1  -6 2870.81  371.96
  -3  -1  -6 2773.62  139.99
  -3  -1  -6 2897.91  146.99
   3   1   6 2533.15  405.56
   3   1   6 2340.17  138.79
   3   1   6 2327.37  134.69
  -4  -1  -6   84.99    3.40
  -4  -1  -6   90.79    4.40
  -4  -1  -6   92.99    4.50
   4   1   6   83.09    4.20
   4   1   6   83.29    4.30
  -5  -1  -6  365.86   10.70
   5   1   6  380.46   10.90
   5   1   6  331.37   10.40
  -6  -1  -6    3.30    0.90
  -6  -1  -6    1.20    0.90
   6   1   6    2.00    1.00
   6   1   6    2.00    1.00
  -7  -1  -6   81.09    4.00
   7   1   6   79.09    5.00
   7   1   6   86.59    5.20
  -8  -1  -6   31.80    4.00
  -8  -1  -6   37.10    3.00
   8   1   6   36.00    4.20
   8   1   6   34.20    4.30
   8   1   6   38.70    4.60
  -9  -1  -6  148.49    8.20
  -9  -1  -6  151.58    6.80
   9   1   6  139.19    7.90
   9   1   6  157.88    8.10
   9   1   6  142.29    7.90
   5  -2  -6  361.86   13.30
   5  -2  -6  365.16   13.90
   5  -2  -6  352.96   13.80
  -5   2   6  381.76   14.70
   4  -2  -6  147.09    7.80
   4  -2  -6  130.69    7.10
   4  -2  -6  139.19    7.50
   3  -2  -6  363.46   12.20
   3  -2  -6  356.36   12.30
  -3   2   6  362.56    8.40
   2  -2  -6  147.59    6.90
   2  -2  -6  160.08    7.00
  -2   2   6  151.68    4.40
  -2   2   6  155.78    7.30
   1  -2  -6   -0.40    0.30
   1  -2  -6    0.80    0.70
  -1   2   6   -0.20    0.20
  -1   2   6    0.10    0.50
   0  -2  -6  581.74   14.50
   0  -2  -6  598.34   14.80
   0   2   6  595.34   12.40
   0   2   6  586.24   15.00
   0   2   6  587.04   14.90
  -1  -2  -6   98.89    4.30
  -1  -2  -6   94.69    4.40
   1   2   6   93.99    4.50
   1   2   6   99.59    4.40
  -2  -2  -6  888.71   19.40
  -2  -2  -6  916.11   20.10
  -2  -2  -6  917.41   19.40
   2   2   6  915.91   19.40
  -3  -2  -6    6.10    1.30
  -3  -2  -6    6.40    1.20
  -3  -2  -6    5.50    1.30
   3   2   6    7.10    1.40
  -5  -2  -6   94.99    4.90
   5   2   6  106.09    5.10
   5   2   6   89.39    4.50
  -6  -2  -6  743.03   16.40
   6   2   6  732.73   18.10
   6   2   6  664.83   17.40
   6   2   6  736.13   18.30
  -7  -2  -6    3.60    1.10
   7   2   6    3.40    1.40
   7   2   6    2.30    1.00
  -9  -2  -6  145.89    6.80
  -9  -2  -6  124.99    7.40
   9   2   6  149.39    7.90
   9   2   6  134.39    7.50
   9   2   6  143.69    7.80
   5  -3  -6   22.90    3.90
   5  -3  -6   21.60    3.60
   5  -3  -6   22.00    4.10
  -5   3   6   21.10    4.00
   4  -3  -6  229.78   10.20
   4  -3  -6  214.08    9.60
   4  -3  -6  226.88    9.90
  -4   3   6  211.78   10.30
   3  -3  -6   11.00    2.50
   3  -3  -6    7.50    1.90
   2  -3  -6  255.67    9.60
   2  -3  -6  240.18    9.00
  -2   3   6  240.78    9.70
   1  -3  -6    0.30    0.70
   1  -3  -6    1.10    0.80
  -1   3   6    1.10    0.30
  -1   3   6    0.00    0.60
   0  -3  -6  259.77    8.80
   0  -3  -6  257.77    8.10
   0   3   6  251.67    6.00
   0   3   6  251.27    8.80
  -1  -3  -6 1289.17   27.10
  -1  -3  -6 1281.87   25.90
  -2  -3  -6   27.30    2.40
  -2  -3  -6   21.90    1.90
  -2  -3  -6   20.20    2.30
   2   3   6   24.20    2.00
  -3  -3  -6  962.50   21.40
  -3  -3  -6  958.00   20.20
  -3  -3  -6  978.90   21.10
   3   3   6  989.40   20.30
  -4  -3  -6   46.60    3.20
  -4  -3  -6   51.79    3.00
   4   3   6   45.90    2.80
   4   3   6   48.20    3.10
  -5  -3  -6    2.10    1.00
   5   3   6    2.60    0.90
   5   3   6    1.80    0.90
   5   3   6    3.30    1.00
  -6  -3  -6    4.20    1.30
   6   3   6    6.30    1.50
   6   3   6    6.40    1.60
   6   3   6    1.80    1.00
  -7  -3  -6  588.94   15.10
   7   3   6  591.64   16.30
   7   3   6  583.14   15.70
  -8  -3  -6  257.67    9.10
   8   3   6  249.08   10.10
   8   3   6  266.97    9.90
  -9  -3  -6  133.69    6.80
  -9  -3  -6  134.19    7.60
   9   3   6  143.39    7.70
   9   3   6  135.79    7.50
   9   3   6  148.89    7.60
 -10  -3  -6  238.48   11.10
 -10  -3  -6  234.38    9.80
  10   3   6  233.08   10.70
  10   3   6  223.48   10.60
  10   3   6  219.28   10.30
   5  -4  -6  338.27   13.60
   5  -4  -6  350.86   13.80
   5  -4  -6  350.26   14.10
  -5   4   6  324.17   14.20
   4  -4  -6   12.30    3.10
   4  -4  -6    8.10    2.30
   4  -4  -6    7.60    2.40
  -4   4   6    5.40    2.10
   3  -4  -6   23.00    3.30
   3  -4  -6   25.00    3.30
   3  -4  -6   26.20    3.60
   2  -4  -6   79.59    4.80
   2  -4  -6   78.49    5.20
   1  -4  -6  321.67   11.00
   1  -4  -6  329.97   10.20
  -1   4   6  328.37   11.30
   0  -4  -6  108.79    5.50
   0  -4  -6  102.39    4.70
   0   4   6  106.79    2.70
   0   4   6  108.19    2.70
   0   4   6  118.69    5.80
  -1  -4  -6  632.94   16.10
  -1  -4  -6  627.74   14.30
   1   4   6  628.74   12.80
   1   4   6  621.04   14.70
  -2  -4  -6  236.38    6.70
  -2  -4  -6  239.48    8.20
   2   4   6  224.58    6.80
   2   4   6  233.48    6.50
  -3  -4  -6  104.49    4.90
  -3  -4  -6   95.89    3.90
  -3  -4  -6   96.89    4.80
   3   4   6   99.09    4.10
   3   4   6   98.39    3.80
  -4  -4  -6  211.98    7.40
  -4  -4  -6  193.78    6.10
   4   4   6  203.38    6.20
   4   4   6  175.28    6.50
  -5  -4  -6   19.30    2.60
   5   4   6   18.90    2.20
   5   4   6   18.70    2.70
   5   4   6   12.80    2.00
  -6  -4  -6    0.60    0.70
   6   4   6    0.40    0.70
   6   4   6    1.50    1.00
   6   4   6    0.20    0.50
  -7  -4  -6    4.50    1.60
   7   4   6    2.00    1.10
   7   4   6    5.40    1.40
  -8  -4  -6   88.99    5.20
  -8  -4  -6   98.19    6.00
   8   4   6   94.69    5.40
   8   4   6  103.99    6.00
  -9  -4  -6   87.79    6.00
   9   4   6   82.29    5.80
   9   4   6   81.49    5.40
   9   4   6   90.19    6.10
 -10  -4  -6  106.59    7.10
 -10  -4  -6   89.19    6.00
  10   4   6   95.39    6.60
  10   4   6   80.89    6.30
  10   4   6   96.39    6.40
   4  -5  -6   14.30    2.90
   4  -5  -6   18.30    3.40
   4  -5  -6   14.30    3.10
  -4   5   6   14.40    3.30
   3  -5  -6   19.40    3.20
   3  -5  -6   19.60    3.10
   3  -5  -6   17.20    3.10
  -3   5   6   30.20    4.30
   2  -5  -6   36.20    3.30
   2  -5  -6   35.20    4.20
   1  -5  -6  704.33   17.20
   1  -5  -6  696.43   18.80
   0  -5  -6   91.99    5.40
   0  -5  -6   99.29    4.50
  -1  -5  -6 1256.97   25.20
  -1  -5  -6 1264.07   28.20
   1   5   6 1271.67   23.60
  -2  -5  -6   15.60    2.30
  -2  -5  -6   16.20    1.50
   2   5   6   19.70    1.70
   2   5   6   17.20    1.50
  -3  -5  -6   43.10    3.20
  -3  -5  -6   40.50    3.20
  -3  -5  -6   40.60    2.20
   3   5   6   42.50    2.60
   3   5   6   40.50    2.20
  -4  -5  -6   -0.30    0.50
   4   5   6    0.30    0.40
   4   5   6   -0.40    0.40
  -5  -5  -6  420.26   12.10
   5   5   6  418.56   10.20
   5   5   6  387.86   11.40
  -6  -5  -6   36.70    3.30
   6   5   6   36.60    2.60
   6   5   6   37.60    4.00
   6   5   6   36.10    3.20
  -7  -5  -6  549.25   15.70
   7   5   6  541.25   15.70
   7   5   6  560.44   14.30
  -8  -5  -6  156.98    7.70
   8   5   6  156.78    7.70
   8   5   6  159.78    6.90
   8   5   6  148.09    7.50
  -9  -5  -6    0.50    0.90
  -9  -5  -6   -0.40    0.70
   9   5   6   -0.20    0.60
   9   5   6    0.00    0.70
   9   5   6    0.30    1.10
   4  -6  -6   83.69    6.40
   4  -6  -6   65.09    5.40
   4  -6  -6   72.99    6.10
  -4   6   6   72.49    6.30
   3  -6  -6    8.60    2.50
   3  -6  -6   12.10    2.60
   3  -6  -6   10.60    2.50
  -3   6   6   10.00    2.70
   2  -6  -6  135.39    7.40
   2  -6  -6  115.19    6.00
  -2   6   6  116.29    7.10
   1  -6  -6  242.88    8.40
   1  -6  -6  254.87   10.20
   0  -6  -6  172.88    6.10
   0  -6  -6  167.58    7.80
  -1  -6  -6   17.50    2.80
  -1  -6  -6   18.40    2.00
   1   6   6   18.90    1.20
  -2  -6  -6  762.22   19.40
  -2  -6  -6  752.32   15.40
   2   6   6  753.72   15.90
  -3  -6  -6   67.79    4.50
  -3  -6  -6   72.49    2.70
  -3  -6  -6   70.19    4.30
   3   6   6   69.79    2.90
   3   6   6   68.99    3.50
  -4  -6  -6  452.95   12.90
   4   6   6  486.25   10.10
   4   6   6  436.46   11.90
  -5  -6  -6  142.99    6.40
   5   6   6  136.39    6.00
   5   6   6  141.59    4.60
  -6  -6  -6  595.44   16.20
   6   6   6  597.84   13.80
   6   6   6  615.94   16.20
  -7  -6  -6  107.09    5.90
   7   6   6  109.49    6.10
   7   6   6  124.39    5.20
  -8  -6  -6  575.24   16.80
   8   6   6  576.54   15.10
   8   6   6  579.94   17.00
   8   6   6  560.24   16.90
  -9  -6  -6   68.09    5.30
  -9  -6  -6   69.29    5.30
   9   6   6   77.09    5.70
   9   6   6   67.49    5.30
   9   6   6   73.09    4.80
   3  -7  -6   69.59    5.80
   3  -7  -6   67.19    5.70
   3  -7  -6   59.49    4.80
  -3   7   6   65.29    5.80
   2  -7  -6  300.87   12.00
   2  -7  -6  279.37   10.00
   1  -7  -6  466.35   15.20
   1  -7  -6  434.36   12.40
   0  -7  -6  243.78    7.60
   0  -7  -6  244.78   10.10
  -1  -7  -6   53.19    2.70
  -1  -7  -6   47.60    4.10
   1   7   6   46.70    1.90
  -2  -7  -6    0.40    0.70
  -2  -7  -6    1.20    0.40
   2   7   6    2.10    0.70
  -3  -7  -6  214.88    8.90
  -3  -7  -6  207.68    8.00
   3   7   6  211.38    6.90
  -4  -7  -6    2.00    1.00
   4   7   6    0.70    0.70
  -5  -7  -6 1279.37   27.90
   5   7   6 1242.58   23.40
   5   7   6 1259.17   27.30
  -6  -7  -6   34.30    3.80
   6   7   6   33.60    2.10
   6   7   6   37.40    3.30
  -7  -7  -6   98.59    5.70
   7   7   6   88.09    5.50
   7   7   6   96.69    4.20
  -8  -7  -6  132.09    7.10
   8   7   6  136.89    7.30
   8   7   6  137.49    7.40
   8   7   6  145.49    6.00
  -9  -7  -6   22.60    3.70
  -9  -7  -6   26.70    3.80
   9   7   6   25.40    3.30
   9   7   6   26.20    3.90
   9   7   6   27.10    4.20
   3  -8  -6  346.17   12.40
   3  -8  -6  346.27   14.00
   3  -8  -6  356.16   14.30
   2  -8  -6    8.60    2.10
   2  -8  -6   12.90    3.10
   1  -8  -6  214.48    7.80
   1  -8  -6  229.28   10.40
   0  -8  -6  222.68   10.00
   0  -8  -6  218.78    7.00
  -1  -8  -6   33.00    1.90
  -1  -8  -6   26.40    3.70
   1   8   6   30.70    1.50
  -2  -8  -6  495.05   15.40
  -2  -8  -6  470.55    9.10
   2   8   6  475.45   11.20
  -3  -8  -6  205.58    8.20
  -3  -8  -6  194.38    8.90
   3   8   6  214.88    7.10
  -4  -8  -6  396.56   12.10
   4   8   6  401.86   11.40
  -5  -8  -6   79.59    4.80
   5   8   6   83.89    4.80
  -6  -8  -6  602.34   16.40
   6   8   6  580.04   11.60
  -7  -8  -6   83.79    5.30
   7   8   6   74.89    3.30
   7   8   6   80.19    5.40
  -8  -8  -6   46.10    4.20
   8   8   6   45.90    5.00
   8   8   6   53.69    3.20
  -9  -8  -6    8.70    2.70
  -9  -8  -6    9.00    2.40
   9   8   6    9.60    2.70
   9   8   6    6.90    2.30
   9   8   6    7.20    1.80
   2  -9  -6   38.00    5.50
   2  -9  -6   37.50    5.20
   2  -9  -6   31.30    3.70
   1  -9  -6   15.30    3.30
   1  -9  -6   18.00    2.50
   0  -9  -6    4.00    1.90
   0  -9  -6    1.90    0.80
  -1  -9  -6   57.29    2.30
  -1  -9  -6   60.99    5.20
  -2  -9  -6    2.10    1.20
   2   9   6    1.10    0.60
  -3  -9  -6  746.33   21.10
  -3  -9  -6  722.43   19.10
   3   9   6  745.03   17.30
  -4  -9  -6   23.20    3.10
   4   9   6   28.10    3.30
  -5  -9  -6  329.07   11.00
   5   9   6  319.47   10.80
  -6  -9  -6   10.70    2.30
  -7  -9  -6    7.70    2.00
   7   9   6    8.00    2.20
   7   9   6    7.20    0.70
  -8  -9  -6    3.60    1.60
   8   9   6    3.40    0.90
   8   9   6    2.50    1.50
   8   9   6    3.70    1.00
   1 -10  -6    5.70    2.20
   0 -10  -6  114.99    7.70
   0 -10  -6  121.39    4.40
   0 -10  -6  125.49    4.60
  -1 -10  -6   -0.50    0.70
  -2 -10  -6   73.29    5.90
   2  10   6   88.19    3.80
  -3 -10  -6    0.70    1.10
  -3 -10  -6   -0.40    0.70
   3  10   6   -0.40    0.40
  -4 -10  -6  209.08    8.50
  -4 -10  -6  193.28    9.80
   4  10   6  211.88    8.10
  -5 -10  -6   24.10    3.30
  -6 -10  -6   82.29    5.20
   6  10   6   86.19    5.60
  -7 -10  -6   90.99    5.70
   7  10   6   89.89    6.10
  -1 -11  -6  333.37   14.00
  -2 -11  -6   69.29    6.00
   2  11   6   69.39    3.50
  -3 -11  -6  229.58    9.50
  -3 -11  -6  221.18   10.90
   3  11   6  224.18    7.90
  -4 -11  -6   12.40    3.10
  -4 -11  -6    9.20    2.10
   4  11   6   12.00    2.30
  -5 -11  -6   30.40    3.80
   5  11   6   32.00    4.10
  -6 -11  -6   70.99    5.00
   6  11   6   74.19    5.40
   2   8  -7   10.80    2.70
  -2  -8   7    6.60    1.90
  -2  -8   7   13.70    3.10
  -2  -8   7   12.30    3.10
   1   8  -7  133.89    7.60
  -1  -8   7  134.09    7.90
  -1  -8   7  133.99    7.60
  -1  -8   7  129.39    6.20
   0   8  -7   79.79    5.80
   0  -8   7   89.99    6.10
   0  -8   7   88.59    6.30
   0  -8   7   92.19    4.50
  -1   8  -7  137.69    7.70
   1  -8   7  136.39    4.70
   1  -8   7  130.39    7.70
   1  -8   7  147.99    7.80
  -2   8  -7   16.80    3.20
   2  -8   7   19.10    3.40
   2  -8   7   15.60    3.00
  -3   8  -7  125.29    7.50
   3  -8   7  122.99    7.50
   3  -8   7  115.89    7.20
   3   7  -7  381.06   14.40
  -3  -7   7  410.86   14.60
  -3  -7   7  411.56   13.80
   2   7  -7  157.28    8.30
  -2  -7   7  150.48    8.20
  -2  -7   7  152.08    8.30
  -2  -7   7  163.88    7.50
   1   7  -7   80.29    5.70
  -1  -7   7   72.79    5.50
  -1  -7   7   78.99    4.60
  -1  -7   7   80.09    5.70
   0   7  -7   58.39    4.80
   0  -7   7   64.99    3.70
   0  -7   7   67.19    5.10
   0  -7   7   62.19    5.10
  -1   7  -7  251.77   10.40
   1  -7   7  258.47   10.70
   1  -7   7  257.37    7.00
   1  -7   7  253.57   10.30
  -2   7  -7   64.69    5.10
   2  -7   7   63.39    4.90
   2  -7   7   60.99    4.90
  -3   7  -7  252.47   10.70
  -3   7  -7  246.08    7.60
   3  -7   7  251.47   10.60
   3  -7   7  229.38   10.00
  -4   7  -7   94.09    4.90
   4  -7   7   96.59    4.80
   4  -7   7   96.89    6.40
   4  -7   7   90.89    6.30
  -5   7  -7   88.59    5.50
   5  -7   7   97.29    6.60
   5  -7   7   94.09    6.60
   5  -7   7   91.29    5.10
   4   6  -7   17.00    1.50
   4   6  -7   17.20    3.30
   4   6  -7   16.70    1.40
   4   6  -7   12.60    2.80
  -4  -6   7   15.80    3.20
  -4  -6   7   20.90    3.60
   3   6  -7  107.59    2.80
   3   6  -7  114.99    7.10
   3   6  -7  108.59    2.80
  -3  -6   7  127.29    6.90
  -3  -6   7  108.19    6.70
   2   6  -7   65.99    5.20
  -2  -6   7   51.19    4.50
  -2  -6   7   57.79    4.30
  -2  -6   7   57.89    4.90
   1   6  -7  139.99    7.50
  -1  -6   7  144.89    7.50
  -1  -6   7  150.98    7.70
  -1  -6   7  150.68    6.40
   0  -6   7  226.78    9.60
   0  -6   7  237.98    9.80
   0  -6   7  243.08    7.70
  -1   6  -7   82.29    2.80
   1  -6   7   71.59    5.10
   1  -6   7   80.79    5.30
   1  -6   7   83.99    3.50
  -2   6  -7    1.40    0.70
  -2   6  -7    2.80    1.50
   2  -6   7    0.70    1.00
   2  -6   7    0.70    0.90
  -3   6  -7  210.68    7.00
  -3   6  -7  216.68    9.50
   3  -6   7  192.88    8.90
   3  -6   7  208.38    9.10
  -4   6  -7   12.60    2.10
   4  -6   7   10.50    2.60
   4  -6   7   10.10    2.30
   4  -6   7   10.50    1.90
  -5   6  -7   80.49    4.90
   5  -6   7   90.69    6.10
   5  -6   7   77.59    5.80
   5  -6   7   75.49    4.60
  -6   6  -7    4.30    1.70
   6  -6   7    7.00    2.30
   6  -6   7    6.60    2.30
   6  -6   7    4.70    1.70
   4   5  -7  151.98    8.50
   4   5  -7  158.48    8.00
   4   5  -7  160.08    5.80
  -4  -5   7  153.48    8.30
  -4  -5   7  171.28    8.20
   3   5  -7   52.59    2.80
   3   5  -7   58.89    4.90
  -3  -5   7   51.19    4.30
  -3  -5   7   41.10    4.60
   2   5  -7   46.80    2.40
   2   5  -7   46.70    4.30
   2   5  -7   55.19    2.50
  -2  -5   7   50.29    4.00
  -2  -5   7   55.59    4.40
  -2  -5   7   52.19    4.60
   1   5  -7    1.10    0.50
   1   5  -7    1.20    0.50
   1   5  -7    0.00    0.50
  -1  -5   7    2.20    1.20
  -1  -5   7   -0.10    0.60
  -1  -5   7    2.50    1.10
   0   5  -7   45.20    2.10
   0  -5   7   48.90    4.00
   0  -5   7   48.00    3.10
   0  -5   7   41.40    3.80
  -1   5  -7   67.19    2.90
   1  -5   7   68.79    4.70
   1  -5   7   62.79    4.60
   1  -5   7   72.09    3.20
  -2   5  -7  278.17    7.90
   2  -5   7  305.77   10.80
   2  -5   7  303.67   10.80
  -3   5  -7  192.48    6.70
   3  -5   7  200.48    8.50
   3  -5   7  187.18    8.40
   3  -5   7  192.18    6.50
  -4   5  -7  358.06   13.00
  -4   5  -7  373.66   11.10
   4  -5   7  393.46   11.00
   4  -5   7  375.36   13.00
   4  -5   7  378.96   12.90
  -5   5  -7  254.17    9.20
   5  -5   7  239.78   10.30
   5  -5   7  230.18    8.60
  -6   5  -7  118.39    6.60
   6  -5   7  155.38    7.10
   6  -5   7  134.29    7.80
  -7   5  -7    6.40    2.30
   7  -5   7    7.20    2.10
   7  -5   7    1.50    1.40
   5   4  -7   56.59    4.60
   5   4  -7   47.20    3.70
   5   4  -7   39.40    4.90
  -5  -4   7   56.09    4.70
  -5  -4   7   54.59    6.20
   4   4  -7  237.88   10.40
   4   4  -7  234.28    9.60
   4   4  -7  240.28    8.10
   4   4  -7  218.58   10.30
  -4  -4   7  236.18    9.50
  -4  -4   7  238.18   10.40
   3   4  -7  105.09    4.60
   3   4  -7   93.49    6.20
   3   4  -7   98.89    6.00
  -3  -4   7  101.89    5.80
  -3  -4   7   99.69    6.00
   2   4  -7  335.87    8.90
  -2  -4   7  325.07   12.30
  -2  -4   7  352.76   11.60
  -2  -4   7  334.37   11.20
   1   4  -7   35.20    2.20
  -1  -4   7   36.20    4.40
  -1  -4   7   37.90    3.40
  -1  -4   7   35.70    3.00
   0   4  -7   30.30    3.60
   0   4  -7   34.20    2.10
   0  -4   7   34.40    2.60
   0  -4   7   38.80    3.60
   0  -4   7   41.50    3.50
  -1   4  -7  337.67   11.40
  -1   4  -7  337.47    8.60
   1  -4   7  337.47   11.20
   1  -4   7  332.37   11.00
   1  -4   7  328.37    8.50
  -2   4  -7    2.30    0.80
  -2   4  -7    3.20    1.40
   2  -4   7    2.80    0.40
   2  -4   7    1.90    1.00
   2  -4   7    2.10    1.20
  -3   4  -7  300.77    8.80
   3  -4   7  284.27    8.50
   3  -4   7  301.07   10.60
   3  -4   7  277.27   10.20
  -4   4  -7   35.50    2.90
   4  -4   7   39.10    3.00
   4  -4   7   43.30    4.70
  -5   4  -7  148.19    6.70
   5  -4   7  158.48    7.90
   5  -4   7  149.29    6.50
   6  -4   7   55.29    4.20
   6  -4   7   51.99    4.60
  -7   4  -7  110.89    6.70
   7  -4   7  120.89    6.70
   7  -4   7  123.79    7.50
   5   3  -7  376.86   12.10
   5   3  -7  371.16   14.40
   5   3  -7  370.06   14.30
   5   3  -7  358.76   12.30
  -5  -3   7  369.16   12.40
  -5  -3   7  368.16   14.30
   4   3  -7   72.59    5.50
   4   3  -7   75.49    4.90
   4   3  -7   76.19    4.60
   4   3  -7   71.19    5.60
  -4  -3   7   81.19    5.10
  -4  -3   7   71.89    5.50
   3   3  -7  127.19    6.70
   3   3  -7  111.69    5.20
   3   3  -7  114.69    6.80
  -3  -3   7  118.79    6.60
  -3  -3   7  126.39    6.20
   2   3  -7   91.69    5.30
  -2  -3   7  100.29    5.30
  -2  -3   7   92.59    6.00
  -2  -3   7   94.79    5.40
   1   3  -7  569.84   13.40
   1   3  -7  554.64   16.10
   1   3  -7  571.44   14.80
  -1  -3   7  575.64   15.30
  -1  -3   7  561.34   14.80
  -1  -3   7  570.24   16.40
   0   3  -7  474.75   12.30
   0   3  -7  489.65   14.30
   0   3  -7  509.65   11.70
   0  -3   7  498.15   12.60
   0  -3   7  497.95   14.50
   0  -3   7  475.35   13.50
  -1   3  -7  176.98    5.80
  -1   3  -7  168.88    7.40
   1  -3   7  178.58    7.20
   1  -3   7  169.48    7.40
   1  -3   7  180.88    5.70
  -2   3  -7 1316.17   26.10
  -2   3  -7 1254.47   28.70
   2  -3   7 1303.27   23.80
   2  -3   7 1266.37   28.20
   2  -3   7 1303.77   28.70
  -3   3  -7    0.20    0.50
  -3   3  -7    0.30    0.60
   3  -3   7    0.50    0.70
  -4   3  -7  503.05   13.20
   4  -3   7  488.85   14.50
   4  -3   7  472.15   12.90
  -5   3  -7  257.17    9.10
   5  -3   7  254.57    8.90
   5  -3   7  248.28    9.90
   6  -3   7  127.69    6.40
   6  -3   7  131.29    7.20
  -7   3  -7    0.50    1.10
   7  -3   7    2.20    1.20
   7  -3   7    1.20    1.20
  -8   3  -7  127.89    7.70
   8  -3   7  150.48    8.60
   8  -3   7  124.99    7.40
   5   2  -7    7.50    2.30
   5   2  -7    3.60    1.90
   5   2  -7    6.20    1.70
   5   2  -7    6.40    1.90
  -5  -2   7    9.60    2.70
  -5  -2   7    8.40    2.10
   4   2  -7  233.98   10.20
   4   2  -7  222.88    8.50
   4   2  -7  232.08   10.30
   4   2  -7  226.98    8.70
  -4  -2   7  224.78   10.10
  -4  -2   7  213.98    8.30
   3   2  -7   -0.40    0.60
   3   2  -7    0.30    0.60
   3   2  -7    2.10    1.20
  -3  -2   7    0.00    0.70
  -3  -2   7    0.80    1.00
   2   2  -7   42.30    3.50
  -2  -2   7   34.90    4.50
  -2  -2   7   30.90    2.80
  -2  -2   7   35.10    3.30
   1   2  -7  283.57    9.20
  -1  -2   7  281.27    9.40
  -1  -2   7  279.67    9.20
  -1  -2   7  280.97   10.50
   0   2  -7   36.00    2.60
   0   2  -7   36.50    3.30
   0   2  -7   35.60    2.60
   0  -2   7   35.70    2.90
   0  -2   7   32.00    2.60
   0  -2   7   39.20    4.20
  -1   2  -7  818.92   17.80
  -1   2  -7  813.32   19.90
  -1   2  -7  799.12   17.20
   1  -2   7  817.42   17.50
   1  -2   7  804.42   19.10
   1  -2   7  832.12   20.00
  -2   2  -7  359.46   11.20
  -2   2  -7  347.87    8.10
  -2   2  -7  340.77    9.50
   2  -2   7  358.96   10.80
   2  -2   7  358.76    8.20
   2  -2   7  360.56   11.10
  -3   2  -7  220.68    7.50
  -3   2  -7  260.97    9.30
   3  -2   7  247.38    8.90
  -4   2  -7  128.09    5.60
   4  -2   7  116.09    5.30
   4  -2   7  118.99    6.10
  -5   2  -7  509.45   14.00
   5  -2   7  500.15   14.90
   5  -2   7  505.65   13.80
  -6   2  -7    7.10    2.10
   6  -2   7    3.70    1.50
   6  -2   7    6.40    1.70
  -7   2  -7  117.39    6.60
   7  -2   7  132.19    7.30
   7  -2   7  122.39    6.60
  -8   2  -7   18.30    3.40
   8  -2   7   12.70    3.10
   8  -2   7   16.10    3.10
   5   1  -7   10.90    2.80
   5   1  -7   10.20    2.00
   5   1  -7    9.20    2.30
   5   1  -7   12.80    3.00
  -5  -1   7   11.50    2.20
  -5  -1   7   13.60    3.30
   4   1  -7   44.70    3.80
   4   1  -7   40.70    5.00
   4   1  -7   45.00    5.30
  -4  -1   7   46.80    5.50
  -4  -1   7   40.00    3.20
   3   1  -7   45.00    3.60
   3   1  -7   47.00    4.10
  -3  -1   7   54.19    3.50
  -3  -1   7   44.50    5.00
   2   1  -7   43.50    3.60
  -2  -1   7   31.10    3.70
  -2  -1   7   38.70    2.90
   1   1  -7  165.78    7.40
   1   1  -7  174.98    7.00
  -1  -1   7  165.48    6.30
  -1  -1   7  173.58    7.10
  -1  -1   7  173.68    7.70
   0   1  -7  385.36   10.80
   0   1  -7  402.86   12.10
   0  -1   7  393.46   11.00
   0  -1   7  385.76   12.10
   0  -1   7  396.16   10.90
  -1   1  -7   47.80    3.00
  -1   1  -7   47.80    3.50
  -1   1  -7   43.40    2.70
   1  -1   7   46.80    3.50
   1  -1   7   44.90    3.10
   1  -1   7   44.60    2.80
  -2   1  -7  392.86   11.80
  -2   1  -7  399.96   10.70
  -2   1  -7  402.46    9.50
   2  -1   7  428.36   12.10
   2  -1   7  411.36    9.60
  -3   1  -7   52.29    2.00
  -3   1  -7   48.40    3.20
   3  -1   7   57.09    3.80
  -4   1  -7    4.30    1.30
  -4   1  -7    4.50    1.50
   4  -1   7    3.70    1.30
   4  -1   7    2.10    1.00
  -5   1  -7    4.40    1.30
  -5   1  -7    6.80    1.80
   5  -1   7    4.60    1.50
   5  -1   7    3.50    1.30
  -6   1  -7  195.58    8.00
   6  -1   7  194.78    8.40
   6  -1   7  203.08    8.10
  -7   1  -7  436.46    8.70
  -7   1  -7  429.96   13.70
   7  -1   7  414.66   14.00
   7  -1   7  423.06   13.50
  -8   1  -7  115.09    3.90
  -8   1  -7  107.89    6.70
   8  -1   7  120.19    7.30
   8  -1   7  134.79    7.30
  -9   1  -7   87.39    3.80
  -9   1  -7   87.09    6.50
   9  -1   7   87.19    6.30
   9  -1   7   85.09    6.30
   9  -1   7   96.99    6.90
   5   0  -7    4.20    1.80
   5   0  -7    6.90    2.30
   5   0  -7    5.30    2.10
  -5   0   7    1.70    1.60
  -5   0   7    3.30    1.20
   4   0  -7   83.69    6.00
   4   0  -7   95.29    5.70
   4   0  -7   77.49    5.80
  -4   0   7   85.29    6.30
  -4   0   7   82.19    4.30
   3   0  -7   85.59    5.10
   3   0  -7   81.29    5.50
  -3   0   7   89.59    5.90
  -3   0   7   85.19    4.20
   2   0  -7   45.20    3.90
   2   0  -7   46.30    3.80
  -2   0   7   48.60    3.00
  -2   0   7   37.40    3.60
   1   0  -7  559.54   15.60
   1   0  -7  616.04   16.60
  -1   0   7  619.54   16.30
  -1   0   7  615.34   17.00
  -1   0   7  633.44   14.50
   0   0  -7  427.36   11.60
   0   0  -7  402.46   12.10
   0   0   7  416.46   10.90
   0   0   7  425.76   11.80
   0   0   7  415.66   12.50
  -1   0  -7  114.19    4.70
  -1   0  -7  111.59    5.40
  -1   0  -7  103.99    4.80
   1   0   7  113.59    5.50
   1   0   7  110.39    4.70
   1   0   7  112.19    4.80
  -2   0  -7  181.98    5.70
  -2   0  -7  167.78    6.30
  -2   0  -7  189.88    7.10
   2   0   7  198.18    7.20
  -3   0  -7  143.79    6.20
  -3   0  -7  143.39    4.50
  -3   0  -7  145.99    5.80
   3   0   7  134.89    5.90
  -4   0  -7   21.90    1.40
  -4   0  -7   19.70    2.60
  -4   0  -7   20.30    2.50
   4   0   7   15.00    2.20
   4   0   7   27.30    3.00
  -5   0  -7  327.57   10.30
  -5   0  -7  333.67    7.50
  -5   0  -7  330.67    7.50
  -5   0  -7  332.27   10.90
   5   0   7  317.47   10.30
   5   0   7  328.97   10.70
  -6   0  -7   73.89    4.70
  -6   0  -7   76.99    3.00
   6   0   7   74.49    4.90
   6   0   7   78.49    4.80
  -7   0  -7   11.50    1.50
   7   0   7    9.10    2.00
   7   0   7   12.30    2.40
  -8   0  -7   81.89    3.80
  -8   0  -7   77.49    5.50
   8   0   7   85.09    5.70
   8   0   7   83.39    5.90
   8   0   7   85.19    5.80
  -9   0  -7  148.29    5.90
  -9   0  -7  151.58    8.50
   9   0   7  146.39    8.40
   9   0   7  144.99    8.10
   9   0   7  158.58    8.50
   5  -1  -7    5.80    2.00
   5  -1  -7    3.60    1.80
   5  -1  -7    5.00    2.00
  -5   1   7    6.20    1.40
  -5   1   7    9.50    2.70
   4  -1  -7   73.19    5.70
   4  -1  -7   78.59    5.80
   4  -1  -7   79.39    5.50
  -4   1   7   72.89    5.90
  -4   1   7   81.39    3.80
   3  -1  -7  334.27   12.20
   3  -1  -7  354.36   12.50
  -3   1   7  322.97   12.40
  -3   1   7  346.57    9.10
   2  -1  -7  786.12   20.30
   2  -1  -7  794.62   20.30
  -2   1   7  797.82   17.00
  -2   1   7  765.52   20.60
   1  -1  -7   46.40    3.60
   1  -1  -7   46.80    3.70
  -1   1   7   42.00    2.50
  -1   1   7   37.70    3.40
   0  -1  -7 1169.18   25.80
   0  -1  -7 1166.08   25.30
   0   1   7 1141.79   25.60
   0   1   7 1166.98   23.60
   0   1   7 1196.28   26.30
  -1  -1  -7   22.10    2.60
  -1  -1  -7   27.20    2.30
   1   1   7   29.30    2.70
   1   1   7   31.10    2.50
  -2  -1  -7  632.04   14.50
  -2  -1  -7  614.74   15.40
  -2  -1  -7  627.64   15.40
   2   1   7  643.24   15.60
  -3  -1  -7  246.38    7.10
  -3  -1  -7  257.17    8.30
  -3  -1  -7  253.57    8.40
   3   1   7  243.58    8.20
  -4  -1  -7  891.91   20.60
  -4  -1  -7  906.91   18.40
  -4  -1  -7  862.91   20.30
   4   1   7  903.01   20.50
  -5  -1  -7   97.19    5.20
  -5  -1  -7  100.99    5.20
  -5  -1  -7   98.89    3.80
   5   1   7   97.89    5.10
   5   1   7   97.79    5.10
  -6  -1  -7 1221.38   24.50
  -6  -1  -7 1263.17   28.00
   6   1   7 1260.77   27.90
   6   1   7 1219.48   27.70
  -7  -1  -7   71.49    3.60
   7   1   7   70.99    4.80
   7   1   7   65.29    4.70
  -8  -1  -7   46.00    5.00
  -8  -1  -7   49.80    3.30
   8   1   7   52.89    4.50
   8   1   7   48.30    4.30
   8   1   7   50.29    4.40
  -9  -1  -7    1.30    1.30
  -9  -1  -7    1.40    1.00
   9   1   7    0.80    1.10
   9   1   7    1.80    1.30
   9   1   7    1.20    1.10
   5  -2  -7    1.40    1.40
   5  -2  -7    0.10    0.90
   5  -2  -7    4.20    1.90
  -5   2   7    1.00    1.30
   4  -2  -7   69.79    5.50
   4  -2  -7   75.09    5.80
   4  -2  -7   70.39    5.30
  -4   2   7   71.19    5.90
   3  -2  -7  151.28    7.60
   3  -2  -7  135.59    7.40
  -3   2   7  136.59    4.40
  -3   2   7  128.39    7.50
   2  -2  -7  376.26   12.70
   2  -2  -7  410.96   12.90
  -2   2   7  390.06   13.30
  -2   2   7  388.36    9.10
   1  -2  -7   76.79    4.70
   1  -2  -7   85.29    5.00
  -1   2   7   82.39    3.30
  -1   2   7   77.09    5.00
   0  -2  -7  191.08    7.40
   0  -2  -7  198.48    7.50
   0   2   7  193.48    5.80
   0   2   7  198.68    7.70
   0   2   7  198.98    7.80
  -1  -2  -7  218.58    7.60
  -1  -2  -7  228.48    7.70
   1   2   7  220.38    7.80
   1   2   7  216.08    7.70
  -2  -2  -7    0.00    0.40
  -2  -2  -7    0.70    0.60
  -2  -2  -7    0.90    0.70
   2   2   7   -0.40    0.40
  -3  -2  -7 1568.64   30.90
  -3  -2  -7 1559.14   31.50
  -3  -2  -7 1542.65   31.90
  -4  -2  -7    6.50    1.40
  -4  -2  -7    9.40    1.60
  -4  -2  -7    7.00    1.50
   4   2   7    9.40    1.80
  -5  -2  -7  946.61   21.50
  -5  -2  -7  913.71   21.70
   5   2   7  939.61   21.90
   5   2   7  932.31   21.30
  -6  -2  -7    3.70    1.40
   6   2   7    3.00    1.20
   6   2   7    4.20    1.20
  -7  -2  -7  535.75   13.30
   7   2   7  530.65   15.10
   7   2   7  504.35   15.10
  -8  -2  -7    4.60    1.40
  -8  -2  -7    3.00    1.40
   8   2   7    2.80    1.40
   8   2   7    8.40    2.10
  -9  -2  -7  492.45   13.70
  -9  -2  -7  459.05   15.60
   9   2   7  446.26   15.40
   9   2   7  442.26   15.20
   9   2   7  464.25   15.40
   4  -3  -7    0.50    1.00
   4  -3  -7    0.60    0.80
   4  -3  -7    0.00    1.10
  -4   3   7    0.00    0.90
   3  -3  -7  292.77   11.30
   3  -3  -7  304.77   11.90
   2  -3  -7   75.09    5.00
   2  -3  -7   68.89    5.00
  -2   3   7   73.79    2.10
  -2   3   7   74.49    5.40
   1  -3  -7   39.50    3.30
   1  -3  -7   35.50    3.40
  -1   3   7   39.40    1.80
  -1   3   7   37.60    4.50
   0  -3  -7    1.00    0.90
   0  -3  -7    1.00    0.70
   0   3   7    1.10    0.50
   0   3   7    1.40    0.90
  -1  -3  -7  349.96   10.00
  -1  -3  -7  328.07   10.40
   1   3   7  344.57   10.70
   1   3   7  341.67   10.20
  -2  -3  -7   98.39    4.80
  -2  -3  -7   99.79    5.00
  -2  -3  -7  101.69    4.50
   2   3   7   91.99    4.40
  -3  -3  -7   25.50    2.30
  -3  -3  -7   32.30    2.50
  -3  -3  -7   29.30    3.10
   3   3   7   27.20    2.30
  -4  -3  -7  803.22   18.50
  -4  -3  -7  814.02   18.40
  -4  -3  -7  836.92   19.50
   4   3   7  812.12   18.30
  -5  -3  -7   20.30    2.70
   5   3   7   18.90    2.70
   5   3   7   21.20    2.60
   6   3   7   56.19    3.80
   6   3   7   59.29    4.10
   6   3   7   65.19    4.40
  -7  -3  -7    2.70    1.10
   7   3   7    3.80    1.40
   7   3   7    4.30    1.50
   7   3   7    2.20    1.30
  -8  -3  -7    0.10    0.70
  -8  -3  -7    1.60    0.90
   8   3   7    0.30    0.80
   8   3   7    0.40    0.90
   8   3   7    0.90    0.90
  -9  -3  -7   65.79    5.30
  -9  -3  -7   51.99    4.00
   9   3   7   59.09    4.80
   9   3   7   58.19    5.00
   9   3   7   53.29    4.80
   4  -4  -7  136.89    8.00
   4  -4  -7  159.68    8.60
   4  -4  -7  158.08    8.90
  -4   4   7  140.99    8.90
   3  -4  -7    1.50    1.20
   3  -4  -7    5.90    2.10
   3  -4  -7    1.60    1.20
  -3   4   7    2.10    1.40
   2  -4  -7  252.57    9.70
   2  -4  -7  244.98   10.20
   1  -4  -7    2.00    1.00
   1  -4  -7    3.00    1.40
  -1   4   7    1.90    1.10
   0  -4  -7    8.30    2.00
   0  -4  -7    6.10    1.50
   0   4   7    4.30    1.50
   0   4   7    7.10    0.80
   0   4   7    6.80    0.80
  -1  -4  -7  658.63   17.30
  -1  -4  -7  688.73   16.00
   1   4   7  666.93   13.90
   1   4   7  680.03   16.40
  -2  -4  -7  118.69    5.70
  -2  -4  -7  113.89    4.70
   2   4   7  111.69    4.80
   2   4   7  110.49    4.20
  -3  -4  -7  497.85   12.10
  -3  -4  -7  478.45   13.40
  -3  -4  -7  499.15   13.40
   3   4   7  468.45   11.90
   3   4   7  495.35   12.10
  -4  -4  -7   56.19    3.70
  -4  -4  -7   55.39    3.20
  -4  -4  -7   62.49    4.00
   4   4   7   60.89    3.30
   4   4   7   56.99    3.50
  -5  -4  -7   87.19    5.00
   5   4   7   88.49    4.70
   5   4   7   93.59    4.40
   6   4   7   27.10    3.00
   6   4   7   23.00    3.10
   6   4   7   19.70    2.70
   7   4   7  161.28    6.80
   7   4   7  166.18    7.70
  -8  -4  -7    9.40    2.30
  -8  -4  -7   11.40    2.30
   8   4   7   10.10    2.20
   8   4   7    9.30    2.20
   8   4   7   10.60    2.60
  -9  -4  -7   13.60    2.80
   9   4   7   16.50    3.00
   9   4   7   17.00    3.20
   9   4   7   15.80    2.80
   4  -5  -7   30.30    4.70
   4  -5  -7   37.90    5.30
   4  -5  -7   29.70    4.60
  -4   5   7   31.80    4.80
   3  -5  -7   20.50    3.50
   3  -5  -7   13.30    2.60
   3  -5  -7   13.30    2.80
  -3   5   7   21.60    4.00
   2  -5  -7  129.19    6.70
   2  -5  -7  149.19    7.90
   1  -5  -7   10.90    2.50
   1  -5  -7    5.30    1.60
   0  -5  -7  164.08    7.70
   0  -5  -7  160.08    6.40
  -1  -5  -7   35.40    2.60
  -1  -5  -7   28.60    3.40
   1   5   7   36.30    1.80
  -2  -5  -7 1252.07   28.00
  -2  -5  -7 1233.28   25.00
   2   5   7 1239.48   25.60
   2   5   7 1223.18   24.20
  -3  -5  -7   61.59    3.20
  -3  -5  -7   61.69    4.10
  -3  -5  -7   67.29    4.30
   3   5   7   65.99    3.40
   3   5   7   62.89    3.20
  -4  -5  -7  504.15   14.20
  -4  -5  -7  505.85   12.20
  -4  -5  -7  527.95   14.50
   4   5   7  516.15   13.20
   4   5   7  525.65   12.20
  -5  -5  -7    9.70    2.00
   5   5   7    7.60    1.40
   5   5   7    6.20    1.50
  -6  -5  -7   14.20    2.40
   6   5   7   11.00    1.80
   6   5   7    9.30    2.00
  -7  -5  -7  101.69    5.90
   7   5   7   95.59    5.80
   7   5   7   95.59    4.90
  -8  -5  -7  539.15   16.50
   8   5   7  517.75   16.20
   8   5   7  526.55   14.70
   8   5   7  541.55   16.40
  -9  -5  -7  173.48    8.80
  -9  -5  -7  174.48    8.20
   9   5   7  184.08    9.00
   9   5   7  178.88    8.90
   9   5   7  166.78    7.80
   3  -6  -7    1.50    1.30
   3  -6  -7    0.50    1.00
   3  -6  -7    0.50    1.00
  -3   6   7   -0.70    0.80
   2  -6  -7   30.80    4.30
   2  -6  -7   27.30    3.60
  -2   6   7   32.20    4.70
   1  -6  -7  311.87   10.30
   1  -6  -7  302.97   11.90
   0  -6  -7   30.90    2.70
   0  -6  -7   29.60    4.00
  -1  -6  -7  714.13   19.50
  -1  -6  -7  709.63   16.20
   1   6   7  720.43   13.80
  -2  -6  -7   88.59    5.50
  -2  -6  -7   87.39    3.80
   2   6   7   92.09    3.60
  -3  -6  -7  145.79    6.80
  -3  -6  -7  157.28    5.10
  -3  -6  -7  155.68    7.30
   3   6   7  154.38    5.50
   3   6   7  157.08    5.30
  -4  -6  -7   56.89    4.00
  -4  -6  -7   57.49    2.80
  -4  -6  -7   54.89    4.20
   4   6   7   53.29    3.40
   4   6   7   61.69    2.90
  -5  -6  -7  500.25   14.30
   5   6   7  506.85   13.60
   5   6   7  494.65   11.60
  -6  -6  -7   85.39    5.20
   6   6   7   86.59    4.00
   6   6   7   76.29    4.80
  -7  -6  -7  544.55   16.00
   7   6   7  525.75   13.50
  -8  -6  -7  379.06   13.40
   8   6   7  400.06   11.70
   8   6   7  380.56   13.30
   8   6   7  413.36   13.80
  -9  -6  -7  188.58    9.00
  -9  -6  -7  191.68    9.30
   9   6   7  189.48    9.30
   9   6   7  180.88    7.90
   9   6   7  189.28    9.30
   3  -7  -7   86.79    6.80
   3  -7  -7   87.19    5.90
   3  -7  -7   75.29    6.30
  -3   7   7   90.59    7.20
   2  -7  -7   17.50    2.90
   2  -7  -7   17.40    3.30
   1  -7  -7  560.14   17.90
   1  -7  -7  573.84   15.40
   0  -7  -7  208.48    9.70
   0  -7  -7  203.58    7.20
  -1  -7  -7  241.78    7.20
  -1  -7  -7  227.58    9.90
   1   7   7  226.48    4.60
  -2  -7  -7  305.07   11.50
  -2  -7  -7  314.67    7.90
   2   7   7  289.97    7.70
  -3  -7  -7   43.50    4.00
  -3  -7  -7   39.70    2.10
  -3  -7  -7   41.80    3.60
   3   7   7   45.10    2.90
  -4  -7  -7    0.40    0.80
  -4  -7  -7    0.10    0.70
   4   7   7    0.20    0.60
   4   7   7    0.20    0.40
  -5  -7  -7    9.50    2.10
   5   7   7    8.00    1.20
   5   7   7    8.40    1.80
  -6  -7  -7  289.07   10.50
   6   7   7  292.27    7.70
   6   7   7  284.87   11.20
  -7  -7  -7   68.99    5.00
   7   7   7   65.59    4.70
   7   7   7   67.79    3.50
  -8  -7  -7  629.24   18.30
   8   7   7  618.74   18.30
   8   7   7  636.44   15.60
  -9  -7  -7   42.40    5.20
  -9  -7  -7   32.90    4.30
   9   7   7   33.30    4.40
   9   7   7   44.20    5.40
   9   7   7   39.20    3.40
   2  -8  -7  150.88    9.00
   2  -8  -7  140.19    7.00
   1  -8  -7  263.07   11.70
   1  -8  -7  251.47    9.00
   0  -8  -7  304.37   12.50
   0  -8  -7  306.37    9.20
  -1  -8  -7   40.70    2.50
  -1  -8  -7   36.60    4.80
  -2  -8  -7   94.69    6.30
  -2  -8  -7   97.19    3.40
   2   8   7  101.19    3.80
  -3  -8  -7  160.68    7.50
  -3  -8  -7  159.88    8.20
   3   8   7  152.78    5.80
  -4  -8  -7   38.20    4.90
  -4  -8  -7   40.10    4.30
   4   8   7   34.00    2.80
  -5  -8  -7  441.56   13.60
   5   8   7  449.36   13.00
  -6  -8  -7    8.60    2.10
   6   8   7    6.90    0.90
  -7  -8  -7  204.18    8.90
   7   8   7  187.98    8.50
   7   8   7  209.78    6.00
  -8  -8  -7   27.20    3.90
   8   8   7   18.10    3.10
   8   8   7   23.50    2.50
   1  -9  -7   43.40    3.40
   1  -9  -7   43.30    5.60
   0  -9  -7  129.29    5.30
   0  -9  -7  130.29    8.20
  -1  -9  -7    8.40    1.30
  -1  -9  -7   12.00    3.00
  -2  -9  -7   -0.10    0.80
   2   9   7    2.10    0.70
  -3  -9  -7   18.50    3.10
  -3  -9  -7   19.40    3.60
   3   9   7   19.80    2.40
  -4  -9  -7  104.09    6.00
  -4  -9  -7  105.29    6.90
   4   9   7  104.39    5.20
  -5  -9  -7    7.80    2.00
   5   9   7    9.00    2.00
  -6  -9  -7  608.44   17.30
  -7  -9  -7   36.00    4.30
   7   9   7   33.50    4.10
  -8  -9  -7   36.80    4.60
   8   9   7   29.90    4.00
   8   9   7   31.60    2.00
   0 -10  -7   14.00    3.70
   0 -10  -7    9.30    1.60
  -1 -10  -7   24.50    1.40
  -1 -10  -7   27.80    4.40
  -2 -10  -7    1.10    1.20
   2  10   7    1.20    0.60
  -3 -10  -7  270.67   10.80
  -3 -10  -7  270.97   12.00
   3  10   7  278.67    8.50
  -4 -10  -7    0.70    0.90
  -4 -10  -7    1.10    1.30
   4  10   7    0.50    0.80
  -5 -10  -7   91.09    5.70
  -5 -10  -7   91.69    6.80
  -6 -10  -7  160.68    7.80
   6  10   7  157.08    7.70
  -7 -10  -7   59.29    4.80
   7  10   7   58.99    4.90
  -2 -11  -7   53.59    6.30
  -3 -11  -7   83.99    6.70
  -3 -11  -7   69.09    5.40
   3  11   7   74.89    4.00
  -4 -11  -7  574.54   19.30
  -4 -11  -7  560.04   16.90
   4  11   7  545.55   15.10
  -5 -11  -7   27.10    3.90
  -5 -11  -7   39.50    5.80
   2   7  -8  109.59    7.40
  -2  -7   8  123.39    6.70
  -2  -7   8  121.19    7.90
  -2  -7   8  128.79    7.80
   1   7  -8  243.68   11.10
  -1  -7   8  260.57   11.30
  -1  -7   8  242.18   11.00
  -1  -7   8  245.18    9.10
   0   7  -8   97.59    6.60
   0  -7   8   92.79    6.40
   0  -7   8   98.29    4.70
   0  -7   8  100.89    6.70
  -1   7  -8  109.19    7.00
   1  -7   8  101.39    6.60
   1  -7   8  103.29    3.90
   1  -7   8  100.89    6.70
  -2   7  -8   48.00    5.50
   2  -7   8   43.70    5.10
   2  -7   8   62.59    5.20
  -3   7  -8   44.80    5.20
  -3   7  -8   48.10    2.90
   3  -7   8   44.60    5.00
   3  -7   8   46.50    5.20
  -4   7  -8   53.19    3.60
   4  -7   8   52.99    6.10
   4  -7   8   57.69    6.30
   3   6  -8   24.70    4.00
   3   6  -8   31.00    1.40
   3   6  -8   30.30    1.40
  -3  -6   8   32.10    4.60
  -3  -6   8   30.20    4.30
   2   6  -8  148.59    8.50
  -2  -6   8  157.48    7.60
  -2  -6   8  165.68    8.50
  -2  -6   8  168.38    9.10
   1   6  -8   14.70    3.10
  -1  -6   8   17.30    3.40
  -1  -6   8   13.90    3.10
  -1  -6   8   15.50    2.50
   0   6  -8  180.08    8.90
   0  -6   8  174.78    8.70
   0  -6   8  179.18    6.70
   0  -6   8  184.38    9.00
  -1   6  -8   76.79    5.70
  -1   6  -8   74.79    2.80
   1  -6   8   79.69    5.60
   1  -6   8   73.29    5.40
   1  -6   8   78.49    3.50
  -2   6  -8  173.58    8.70
  -2   6  -8  176.88    5.60
   2  -6   8  177.38    8.60
   2  -6   8  179.28    8.70
  -3   6  -8  135.39    7.80
  -3   6  -8  145.09    5.60
   3  -6   8  150.28    8.00
   3  -6   8  141.79    7.80
  -4   6  -8  182.98    9.30
  -4   6  -8  170.78    6.90
   4  -6   8  165.98    8.70
   4  -6   8  177.88    9.00
   4  -6   8  178.98    6.90
  -5   6  -8  108.69    5.90
   5  -6   8  104.29    6.90
   5  -6   8  107.79    7.10
   5  -6   8  107.09    5.60
   3   5  -8  122.79    4.80
   3   5  -8  140.59    8.20
   3   5  -8  121.89    4.80
  -3  -5   8  114.29    6.90
  -3  -5   8  115.59    6.90
   2   5  -8   80.19    3.40
   2   5  -8   82.49    3.50
   2   5  -8   82.39    6.10
  -2  -5   8   81.19    5.60
  -2  -5   8   72.99    5.90
  -2  -5   8   77.99    5.20
   1   5  -8  231.78    6.20
   1   5  -8  219.28    6.10
   1   5  -8  233.38   10.30
  -1  -5   8  230.78   10.20
  -1  -5   8  216.98    9.40
  -1  -5   8  213.78    8.30
   0   5  -8   -0.10    0.80
   0   5  -8   -0.10    0.40
   0  -5   8    0.20    0.70
   0  -5   8    0.20    0.80
   0  -5   8    0.80    0.70
  -1   5  -8   37.10    2.30
  -1   5  -8   35.60    4.40
   1  -5   8   47.90    4.10
   1  -5   8   31.30    4.00
   1  -5   8   40.50    2.50
  -2   5  -8    0.30    0.60
  -2   5  -8   -0.20    0.70
   2  -5   8   -0.40    0.50
   2  -5   8    0.50    0.80
  -3   5  -8  215.98    7.40
  -3   5  -8  222.78    9.90
   3  -5   8  213.18    9.50
   3  -5   8  236.28    9.80
  -4   5  -8   25.60    3.10
  -4   5  -8   25.00    4.00
   4  -5   8   24.30    3.60
   4  -5   8   20.70    3.30
   4  -5   8   27.60    3.10
  -5   5  -8  217.48    8.60
   5  -5   8  210.88   10.00
   5  -5   8  212.18    9.90
   5  -5   8  227.08    8.50
  -6   5  -8  217.78    9.30
   6  -5   8  225.48    9.00
   6  -5   8  210.58   10.30
   4   4  -8  115.89    5.60
   4   4  -8  114.19    7.60
  -4  -4   8  120.89    6.80
  -4  -4   8  118.19    7.50
   3   4  -8   88.89    4.50
   3   4  -8   79.99    6.10
   3   4  -8   85.09    5.80
  -3  -4   8   82.39    5.50
  -3  -4   8   80.29    5.70
   2   4  -8  180.48    6.30
   2   4  -8  179.78    6.40
   2   4  -8  181.78    9.00
  -2  -4   8  175.98    9.20
  -2  -4   8  184.28    8.30
  -2  -4   8  204.88    8.60
   1   4  -8  280.37    8.10
   1   4  -8  283.87   11.40
  -1  -4   8  299.07   10.00
  -1  -4   8  282.87   10.60
  -1  -4   8  309.17   11.90
   0   4  -8   71.49    5.30
   0   4  -8   90.29    3.90
   0  -4   8   88.09    5.80
   0  -4   8   92.29    4.60
   0  -4   8   88.59    5.40
  -1   4  -8  662.73   15.00
   1  -4   8  662.83   18.10
   1  -4   8  645.94   18.30
   1  -4   8  683.73   15.10
  -2   4  -8  168.28    6.10
   2  -4   8  180.68    8.20
   2  -4   8  181.68    8.10
  -3   4  -8    6.10    1.70
  -3   4  -8    9.10    1.70
   3  -4   8   10.40    2.40
   3  -4   8    6.50    1.90
  -4   4  -8  400.26   13.80
  -4   4  -8  398.56   11.70
   4  -4   8  391.06   13.40
   4  -4   8  393.06   11.50
  -5   4  -8   75.59    4.80
   5  -4   8   81.39    5.70
   5  -4   8   70.29    4.50
   6  -4   8  138.19    6.80
   6  -4   8  145.19    8.10
  -7   4  -8    7.20    2.30
   7  -4   8    8.90    2.30
   7  -4   8    8.10    2.40
   4   3  -8  260.97    9.40
   4   3  -8  269.97   11.50
   4   3  -8  249.88   11.60
  -4  -3   8  259.77   10.10
  -4  -3   8  255.27   11.40
   3   3  -8  259.07    8.80
   3   3  -8  260.87   10.50
   3   3  -8  253.07   11.10
  -3  -3   8  254.67   10.70
  -3  -3   8  257.67    9.70
   2   3  -8  243.98   10.50
   2   3  -8  266.27    8.50
   2   3  -8  252.07    9.70
  -2  -3   8  262.17   10.10
  -2  -3   8  258.17    9.60
  -2  -3   8  249.48   10.90
   1   3  -8   29.20    2.50
   1   3  -8   30.80    4.30
   1   3  -8   34.20    3.10
  -1  -3   8   33.40    3.80
  -1  -3   8   29.40    3.50
  -1  -3   8   33.00    4.50
   0   3  -8   64.29    3.50
   0   3  -8   66.59    3.90
   0  -3   8   69.19    5.00
   0  -3   8   69.49    4.10
   0  -3   8   69.19    4.60
  -1   3  -8  272.97    7.90
  -1   3  -8  286.77    8.30
   1  -3   8  261.67   10.10
   1  -3   8  268.87    8.00
   1  -3   8  267.57    9.70
  -2   3  -8  281.97    8.50
   2  -3   8  254.17    9.90
   2  -3   8  280.97   10.00
   2  -3   8  282.27    6.90
  -3   3  -8  656.23   15.80
   3  -3   8  650.23   17.90
   3  -3   8  635.24   17.50
  -4   3  -8   -0.20    0.60
   4  -3   8    0.50    0.70
   4  -3   8    0.60    0.80
  -5   3  -8  427.26   12.80
   5  -3   8  414.66   14.00
   5  -3   8  428.66   12.70
   6  -3   8    2.50    1.20
   6  -3   8    3.10    1.40
  -7   3  -8  224.28    9.80
   7  -3   8  237.38    9.70
   7  -3   8  214.48   10.30
   4   2  -8   13.30    2.90
   4   2  -8    9.10    2.50
   4   2  -8   14.50    2.70
  -4  -2   8   17.10    2.70
  -4  -2   8    9.10    2.60
   3   2  -8   29.70    4.20
   3   2  -8   25.90    3.30
   3   2  -8   31.70    4.70
  -3  -2   8   23.60    3.80
  -3  -2   8   22.70    3.00
   2   2  -8    3.50    1.50
  -2  -2   8    3.10    1.50
  -2  -2   8    2.20    1.00
   1   2  -8  404.66   12.40
  -1  -2   8  445.36   13.20
  -1  -2   8  432.66   12.60
  -1  -2   8  445.76   14.50
   0   2  -8   19.60    2.60
   0   2  -8   18.20    2.40
   0  -2   8   21.50    2.70
   0  -2   8   15.00    2.30
   0  -2   8   21.70    3.60
  -1   2  -8    5.90    1.30
  -1   2  -8    8.30    1.60
   1  -2   8    9.10    2.20
   1  -2   8    8.80    1.90
   1  -2   8    9.40    1.60
  -2   2  -8  476.05   10.80
  -2   2  -8  469.25   12.20
   2  -2   8  465.85   10.80
   2  -2   8  467.45   14.00
   2  -2   8  461.65   13.40
  -3   2  -8  136.29    5.70
   3  -2   8  121.59    6.40
  -4   2  -8  377.16   11.20
   4  -2   8  372.66   12.40
  -5   2  -8   48.70    3.80
   5  -2   8   49.30    3.80
   5  -2   8   50.59    4.20
   6  -2   8  149.29    7.10
   6  -2   8  160.68    8.00
  -7   2  -8   -0.10    0.80
   7  -2   8    0.70    0.90
   7  -2   8   -0.70    0.60
  -8   2  -8  437.86   15.10
   8  -2   8  447.56   15.90
   8  -2   8  428.46   14.80
   4   1  -8  206.38    8.90
   4   1  -8  230.78   10.80
   4   1  -8  221.98   10.40
  -4  -1   8  200.78   10.30
  -4  -1   8  220.38    8.20
   3   1  -8   -0.30    0.70
   3   1  -8    0.90    0.90
   3   1  -8    0.20    0.90
  -3  -1   8    2.00    1.30
  -3  -1   8    0.00    0.70
   2   1  -8    4.60    1.60
  -2  -1   8    4.70    1.80
  -2  -1   8    3.20    1.20
   1   1  -8    5.40    1.60
   1   1  -8    0.30    1.20
  -1  -1   8    4.30    1.60
  -1  -1   8    5.80    1.50
  -1  -1   8    5.10    1.50
   0   1  -8   53.49    3.50
   0   1  -8   49.90    4.00
   0  -1   8   50.39    3.60
   0  -1   8   47.80    4.00
   0  -1   8   49.90    3.40
  -1   1  -8  252.27    8.30
  -1   1  -8  238.88    9.20
  -1   1  -8  257.57    7.90
   1  -1   8  244.88    8.40
   1  -1   8  249.88    8.00
   1  -1   8  240.98    9.30
  -2   1  -8   14.30    1.80
  -2   1  -8   16.30    2.70
  -2   1  -8   16.70    2.30
   2  -1   8   17.40    2.00
   2  -1   8   14.50    2.20
   2  -1   8   14.90    2.60
  -3   1  -8  140.59    5.90
  -3   1  -8  131.09    4.10
   3  -1   8  137.99    6.50
  -4   1  -8  135.49    6.00
  -4   1  -8  140.19    6.80
  -4   1  -8  129.39    2.90
   4  -1   8  133.59    6.50
  -5   1  -8   42.90    3.50
  -5   1  -8   57.09    4.40
   5  -1   8   51.99    4.10
   5  -1   8   47.90    3.70
   6  -1   8   -0.70    0.40
   6  -1   8   -0.10    0.70
  -7   1  -8   32.50    4.30
   7  -1   8   31.90    4.40
   7  -1   8   35.00    4.30
  -8   1  -8   93.89    6.30
   8  -1   8   98.09    6.70
   8  -1   8  102.69    6.50
   4   0  -8   25.70    3.90
   4   0  -8   25.50    4.30
   4   0  -8   27.10    4.20
  -4   0   8   22.70    4.10
  -4   0   8   28.50    3.10
   3   0  -8  273.27   11.30
   3   0  -8  287.27   11.60
   3   0  -8  292.77   10.70
  -3   0   8  300.57    9.10
  -3   0   8  274.97   11.60
   2   0  -8   19.60    3.10
   2   0  -8   24.80    3.40
  -2   0   8   29.00    4.10
  -2   0   8   28.90    2.50
   1   0  -8  343.77   12.00
   1   0  -8  348.27   11.50
  -1   0   8  354.16   12.50
  -1   0   8  353.96   10.10
  -1   0   8  353.96   11.80
   0   0  -8  700.33   17.50
   0   0  -8  714.33   18.70
   0   0   8  719.63   16.70
   0   0   8  696.03   18.90
   0   0   8  695.73   17.70
  -1   0  -8    1.20    0.80
  -1   0  -8    0.30    0.60
  -1   0  -8   -0.30    0.60
   1   0   8    2.10    1.10
   1   0   8    0.50    0.60
   1   0   8    1.40    0.80
  -2   0  -8  596.94   13.90
  -2   0  -8  586.04   15.90
  -2   0  -8  614.94   15.10
   2   0   8  579.34   15.80
  -3   0  -8   90.69    5.10
  -3   0  -8   92.89    3.70
  -3   0  -8   87.29    4.60
   3   0   8   84.89    4.90
  -4   0  -8  104.99    5.10
  -4   0  -8   95.89    5.30
  -4   0  -8   77.99    3.10
   4   0   8   86.19    5.00
  -5   0  -8   36.20    3.90
  -5   0  -8   27.30    1.50
  -5   0  -8   21.90    3.00
   5   0   8   28.60    3.60
   5   0   8   31.10    3.50
  -6   0  -8  375.66    8.30
  -6   0  -8  389.56    8.30
   6   0   8  391.06   12.70
   6   0   8  375.96   12.30
  -7   0  -8  232.58    5.90
  -7   0  -8  219.48    9.40
  -7   0  -8  235.08    5.90
   7   0   8  241.18    9.70
   7   0   8  240.38    9.90
  -8   0  -8  249.18   10.60
  -8   0  -8  253.37    6.70
   8   0   8  254.87   10.60
   8   0   8  263.97   11.00
  -9   0  -8  106.49    4.20
  -9   0  -8  111.09    7.30
   9   0   8  115.19    7.50
   9   0   8  108.79    7.10
   9   0   8   98.79    6.90
   4  -1  -8   13.90    3.30
   4  -1  -8    7.40    2.30
   4  -1  -8   13.10    2.80
  -4   1   8   15.10    3.30
  -4   1   8   12.00    1.80
   3  -1  -8   59.29    4.70
   3  -1  -8   66.29    5.30
   3  -1  -8   54.09    4.80
  -3   1   8   57.49    5.10
  -3   1   8   57.69    3.30
   2  -1  -8   69.99    5.10
   2  -1  -8   80.89    5.40
  -2   1   8   67.49    5.20
  -2   1   8   73.09    3.60
   1  -1  -8  472.75   14.50
   1  -1  -8  478.95   14.20
  -1   1   8  470.15   11.80
  -1   1   8  473.45   14.60
   0  -1  -8  510.55   14.30
   0  -1  -8  507.65   14.70
   0   1   8  529.25   14.70
   0   1   8  505.45   12.60
   0   1   8  524.15   15.10
  -1  -1  -8  829.72   20.10
  -1  -1  -8  828.22   19.20
   1   1   8  804.02   19.30
   1   1   8  861.51   20.60
   1   1   8  800.02   18.30
  -2  -1  -8    9.30    1.90
  -2  -1  -8    7.30    1.50
  -2  -1  -8    5.70    1.60
   2   1   8    9.90    2.10
  -3  -1  -8  421.06   10.70
  -3  -1  -8  411.86   12.10
  -3  -1  -8  422.96   12.30
   3   1   8  435.16   12.40
  -4  -1  -8   11.50    2.20
  -4  -1  -8   13.70    1.70
  -4  -1  -8   13.90    2.30
   4   1   8   14.80    2.50
  -5  -1  -8  402.76   12.20
  -5  -1  -8  395.96   12.30
  -5  -1  -8  385.56    9.60
   5   1   8  400.66   12.20
   5   1   8  389.46   12.10
  -6  -1  -8   -0.10    0.40
  -6  -1  -8    0.70    0.50
   6   1   8   -0.50    0.40
   6   1   8   -0.10    0.70
  -7  -1  -8  621.84   13.90
  -7  -1  -8  575.44   17.00
   7   1   8  598.04   17.30
   7   1   8  625.84   17.50
  -8  -1  -8  181.58    8.90
  -8  -1  -8  199.48    6.70
   8   1   8  208.38    9.60
   8   1   8  218.58    9.50
   8   1   8  202.68    9.20
  -9  -1  -8  422.96   15.10
  -9  -1  -8  415.96   11.50
   9   1   8  417.16   14.90
   9   1   8  441.16   15.40
   9   1   8  396.06   14.70
   4  -2  -8   15.50    3.40
   4  -2  -8   13.20    3.00
   4  -2  -8   16.20    3.40
  -4   2   8   14.50    3.30
   3  -2  -8  454.15   15.30
   3  -2  -8  461.15   15.80
  -3   2   8  452.65   10.50
  -3   2   8  460.05   16.20
   2  -2  -8   63.29    4.90
   2  -2  -8   55.99    4.60
  -2   2   8   56.19    2.80
  -2   2   8   54.69    4.80
   1  -2  -8  119.09    6.40
   1  -2  -8  124.89    6.50
  -1   2   8  114.39    6.50
  -1   2   8  116.59    4.40
   0  -2  -8  414.26   12.60
   0  -2  -8  405.76   12.50
   0   2   8  392.86   12.80
   0   2   8  418.36   10.20
   0   2   8  404.76   12.70
  -1  -2  -8  129.19    6.10
  -1  -2  -8  131.99    6.00
   1   2   8  148.69    6.50
   1   2   8  124.89    4.90
   1   2   8  129.99    6.10
  -2  -2  -8    1.60    0.90
  -2  -2  -8    1.10    0.90
  -2  -2  -8   -0.20    0.40
   2   2   8    0.90    0.70
  -3  -2  -8  120.29    5.60
  -3  -2  -8  125.09    5.80
  -3  -2  -8  115.79    5.00
   3   2   8  117.49    5.50
  -4  -2  -8  362.26   11.20
  -4  -2  -8  357.76   11.00
  -4  -2  -8  359.86    9.90
   4   2   8  367.86   10.90
  -5  -2  -8   83.09    4.90
  -5  -2  -8   89.29    5.20
  -5  -2  -8   95.09    4.20
   5   2   8   92.19    5.00
  -6  -2  -8 1052.99   22.30
   6   2   8 1068.99   24.70
   6   2   8 1048.10   25.10
  -7  -2  -8  123.69    6.70
  -7  -2  -8  125.69    5.20
   7   2   8  120.69    6.40
   7   2   8  123.29    6.70
   7   2   8  126.19    6.80
  -8  -2  -8  153.68    8.00
  -8  -2  -8  160.78    6.30
   8   2   8  153.78    7.70
   8   2   8  163.18    8.20
   8   2   8  153.48    7.90
  -9  -2  -8   14.10    2.40
  -9  -2  -8    7.90    2.30
   9   2   8    6.00    2.10
   9   2   8    5.00    2.00
   9   2   8    6.10    2.10
   4  -3  -8   39.40    5.10
   4  -3  -8   39.50    5.10
   4  -3  -8   36.10    4.70
  -4   3   8   38.00    5.50
   3  -3  -8   51.39    4.90
   3  -3  -8   43.60    4.80
  -3   3   8   43.80    5.50
   2  -3  -8  756.32   20.30
   2  -3  -8  770.72   21.10
  -2   3   8  733.63   21.40
  -2   3   8  724.93   14.20
   1  -3  -8   26.70    3.80
   1  -3  -8   18.20    2.80
  -1   3   8   23.40    3.60
  -1   3   8   23.30    1.50
   0  -3  -8  324.17   10.80
   0  -3  -8  348.77   11.50
   0   3   8  348.37    8.40
   0   3   8  329.97   11.60
  -1  -3  -8    2.20    1.00
  -1  -3  -8    3.00    1.20
   1   3   8    0.80    0.50
   1   3   8    0.50    0.70
   1   3   8    1.10    0.90
  -2  -3  -8   14.80    2.40
  -2  -3  -8   12.90    2.10
  -2  -3  -8   14.50    2.40
   2   3   8   13.00    2.20
  -3  -3  -8    1.20    0.70
  -3  -3  -8    2.50    1.20
  -3  -3  -8    1.70    0.90
   3   3   8    3.30    1.20
  -4  -3  -8  125.29    6.10
  -4  -3  -8  129.39    5.70
  -4  -3  -8  137.29    5.80
   4   3   8  137.69    5.80
  -5  -3  -8   99.09    5.50
  -5  -3  -8   88.79    4.50
  -5  -3  -8   94.19    4.90
   5   3   8   94.89    4.90
   6   3   8   67.39    7.40
   6   3   8   64.89    4.20
   6   3   8   65.69    4.70
   7   3   8  302.37   10.50
   7   3   8  294.37   11.00
   7   3   8  327.77   11.60
  -8  -3  -8   19.60    3.20
  -8  -3  -8   21.40    2.80
   8   3   8   21.20    3.50
   8   3   8   24.80    3.40
   8   3   8   24.70    3.80
  -9  -3  -8   11.40    2.90
  -9  -3  -8    9.90    2.10
   9   3   8   14.40    3.10
   9   3   8   12.70    2.80
   9   3   8   11.80    2.90
   3  -4  -8  176.18    9.20
   3  -4  -8  186.78    9.10
   3  -4  -8  197.18    9.90
  -3   4   8  176.78    9.80
   2  -4  -8  322.27   11.80
   2  -4  -8  348.57   13.10
  -2   4   8  350.26   13.60
   1  -4  -8   35.80    4.50
   1  -4  -8   42.30    3.70
  -1   4   8   36.90    4.40
   0  -4  -8   71.99    4.50
   0  -4  -8   69.69    4.90
   0   4   8   69.39    2.50
   0   4   8   69.49    5.00
  -1  -4  -8  150.18    6.40
  -1  -4  -8  154.48    7.20
   1   4   8  157.68    6.80
   1   4   8  160.48    4.90
  -2  -4  -8   55.39    4.00
  -2  -4  -8   47.70    3.30
   2   4   8   55.89    3.60
  -3  -4  -8    0.50    0.70
  -3  -4  -8    0.40    0.80
  -3  -4  -8    0.40    0.60
   3   4   8    0.70    0.70
   3   4   8    0.50    0.70
  -4  -4  -8 1307.87   27.20
  -4  -4  -8 1270.37   28.00
   4   4   8 1315.07   27.00
   4   4   8 1274.17   27.40
  -5  -4  -8   14.30    2.30
  -5  -4  -8   14.50    2.30
   5   4   8   11.60    2.10
   5   4   8   12.60    2.00
   6   4   8  160.88    7.30
   6   4   8  158.68    6.50
  -7  -4  -8    0.30    0.60
   7   4   8    0.60    0.70
   7   4   8    1.10    1.00
   7   4   8    0.70    0.90
  -8  -4  -8    3.50    1.40
  -8  -4  -8    1.30    1.10
   8   4   8    1.40    1.20
   8   4   8    2.40    1.20
   8   4   8    1.40    1.20
  -9  -4  -8    7.60    2.30
   9   4   8    9.20    2.20
   9   4   8   12.50    2.80
   9   4   8   15.90    3.10
   3  -5  -8   36.10    4.60
   3  -5  -8   37.90    4.80
   3  -5  -8   38.80    5.00
  -3   5   8   38.90    5.10
   2  -5  -8  163.68    8.00
   2  -5  -8  162.28    8.80
  -2   5   8  164.78    9.20
   1  -5  -8   66.69    4.60
   1  -5  -8   71.19    5.40
  -1   5   8   78.99    5.90
   0  -5  -8   23.80    3.10
   0  -5  -8   22.40    3.70
  -1  -5  -8  205.18    7.50
  -1  -5  -8  200.38    8.80
   1   5   8  217.48    5.70
   1   5   8  215.98    5.50
  -2  -5  -8    1.70    1.10
  -2  -5  -8    1.50    0.80
   2   5   8    2.80    0.90
   2   5   8    2.40    1.00
  -3  -5  -8  473.55   12.10
  -3  -5  -8  472.35   14.00
   3   5   8  462.15   11.80
   3   5   8  476.05   12.30
  -4  -5  -8    0.60    0.60
  -4  -5  -8    0.90    0.80
   4   5   8    0.70    0.60
   4   5   8   -0.30    0.50
  -5  -5  -8  988.30   23.60
   5   5   8  987.60   21.60
   5   5   8 1031.40   23.00
   6   5   8  159.68    7.30
   6   5   8  163.18    6.30
  -7  -5  -8  349.37   12.30
   7   5   8  339.67   11.90
   7   5   8  347.87   10.70
  -8  -5  -8    2.20    1.30
   8   5   8    4.40    1.60
   8   5   8    6.90    1.80
   8   5   8    1.20    1.20
  -9  -5  -8   45.50    4.00
  -9  -5  -8   47.00    5.60
   9   5   8   42.20    4.80
   9   5   8   41.70    5.30
   9   5   8   32.50    4.30
   2  -6  -8   51.29    6.00
   2  -6  -8   49.50    4.30
  -2   6   8   60.69    6.80
   1  -6  -8  111.79    7.10
   1  -6  -8  103.09    5.80
   0  -6  -8    4.50    1.40
   0  -6  -8    4.90    1.90
  -1  -6  -8  144.59    5.90
  -1  -6  -8  135.69    7.40
   1   6   8  138.19    3.60
   1   6   8  138.19    3.50
  -2  -6  -8  795.92   21.20
  -2  -6  -8  784.82   17.80
   2   6   8  798.92   16.70
  -3  -6  -8   14.00    1.90
  -3  -6  -8   14.50    2.60
   3   6   8   15.80    2.10
   3   6   8   22.20    2.40
  -4  -6  -8  594.14   16.50
  -4  -6  -8  566.74   13.70
  -4  -6  -8  600.84   17.00
   4   6   8  600.94   14.80
   4   6   8  588.94   13.90
  -5  -6  -8    0.60    0.90
  -5  -6  -8    1.30    1.00
   5   6   8    0.30    0.50
   5   6   8    0.20    0.60
  -6  -6  -8    7.10    1.90
   6   6   8    7.70    1.50
  -7  -6  -8   31.00    3.90
   7   6   8   25.20    3.40
   7   6   8   33.90    2.80
  -8  -6  -8  293.37   11.70
   8   6   8  292.57   11.50
   8   6   8  314.87   10.10
  -9  -6  -8  191.28    9.00
  -9  -6  -8  195.28    9.60
   9   6   8  172.28    9.00
   9   6   8  175.18    9.20
   9   6   8  180.28    7.90
   2  -7  -8   46.10    4.20
   2  -7  -8   38.90    5.30
   1  -7  -8   89.59    6.60
   1  -7  -8   84.89    5.20
   0  -7  -8  227.28    8.30
   0  -7  -8  240.38   10.80
  -1  -7  -8   95.89    4.60
  -1  -7  -8   91.79    6.30
  -2  -7  -8  505.95   12.40
  -2  -7  -8  507.85   16.20
   2   7   8  508.15   11.40
  -3  -7  -8  339.47    8.90
  -3  -7  -8  325.77   11.70
  -3  -7  -8  355.46   12.70
   3   7   8  341.87    9.40
  -4  -7  -8  112.59    4.20
  -4  -7  -8  112.59    6.20
  -4  -7  -8  103.79    6.40
   4   7   8  108.19    4.30
   4   7   8  115.09    5.20
  -5  -7  -8  232.38    9.40
  -5  -7  -8  221.18    9.70
   5   7   8  252.17    8.70
   5   7   8  239.48    6.90
  -6  -7  -8   37.00    4.30
   6   7   8   32.50    2.30
  -7  -7  -8   15.40    3.00
   7   7   8   14.80    2.10
   7   7   8   12.70    2.60
  -8  -7  -8    6.00    2.00
   8   7   8    5.70    1.90
   8   7   8    5.10    1.40
   9   7   8  153.38    6.80
   9   7   8  159.68    8.60
   1  -8  -8   57.59    6.90
   1  -8  -8   50.29    3.90
   0  -8  -8  175.68    9.50
   0  -8  -8  160.18    6.60
  -1  -8  -8  129.39    5.20
  -1  -8  -8  124.29    7.70
  -2  -8  -8  510.35   16.80
  -2  -8  -8  484.95   11.60
   2   8   8  500.05   10.90
  -3  -8  -8   43.20    2.20
  -3  -8  -8   41.50    4.50
  -3  -8  -8   44.30    5.20
   3   8   8   40.70    2.80
  -4  -8  -8    2.30    1.20
  -4  -8  -8    0.50    1.10
   4   8   8    1.90    1.00
  -5  -8  -8    0.30    0.70
  -5  -8  -8    0.60    0.80
   5   8   8    0.90    0.80
  -6  -8  -8  169.38    8.20
   6   8   8  180.88    5.30
  -7  -8  -8    0.10    0.90
   7   8   8    0.00    0.80
   7   8   8    0.50    0.60
  -8  -8  -8  370.36   13.40
   8   8   8  344.87    9.70
   8   8   8  331.87   12.70
   0  -9  -8  106.39    7.70
   0  -9  -8  119.39    5.40
  -1  -9  -8   29.90    4.90
  -1  -9  -8   28.20    2.20
  -2  -9  -8    2.10    1.60
  -2  -9  -8    1.70    0.60
   2   9   8    1.70    0.50
  -3  -9  -8  230.78   10.90
  -3  -9  -8  251.37   10.40
   3   9   8  234.38    7.40
  -4  -9  -8   38.90    4.50
  -4  -9  -8   52.39    6.10
   4   9   8   37.90    3.10
  -5  -9  -8   59.49    4.80
  -5  -9  -8   66.59    5.60
   5   9   8   60.49    4.20
  -6  -9  -8   28.00    3.80
   6   9   8   28.20    3.60
  -7  -9  -8  157.98    8.10
   7   9   8  152.18    7.80
  -2 -10  -8   36.40    5.50
  -3 -10  -8   15.10    3.00
  -3 -10  -8   22.80    3.90
   3  10   8   20.00    2.20
  -4 -10  -8   46.20    5.20
  -4 -10  -8   48.10    5.80
   4  10   8   47.00    3.50
  -5 -10  -8   10.50    2.70
  -5 -10  -8    7.70    2.20
  -6 -10  -8  540.85   16.70
   6  10   8  518.25   15.70
   1   6  -9  104.19    7.30
  -1  -6   9  108.19    5.90
  -1  -6   9  104.99    7.40
  -1  -6   9  104.29    7.00
   0   6  -9    9.70    0.70
   0   6  -9   10.10    0.70
   0   6  -9    8.30    2.50
   0  -6   9    9.90    2.60
   0  -6   9   14.80    2.30
   0  -6   9   13.90    3.10
  -1   6  -9  223.08    5.80
  -1   6  -9  227.18   10.70
   1  -6   9  226.58    6.80
   1  -6   9  216.98   10.20
   1  -6   9  207.78   10.20
  -2   6  -9  109.69    4.30
  -2   6  -9   98.19    6.90
   2  -6   9  101.29    6.80
   2  -6   9  100.99    6.70
  -3   6  -9  112.59    5.00
  -3   6  -9  107.89    7.30
   3  -6   9  113.79    7.30
   3  -6   9  119.49    7.40
  -4   6  -9   14.30    3.10
  -4   6  -9   20.40    2.70
   4  -6   9   18.50    3.50
   4  -6   9   18.60    3.70
   2   5  -9    0.40    1.00
   2   5  -9    1.70    0.80
   2   5  -9    1.40    0.80
  -2  -5   9   -0.50    0.80
  -2  -5   9    0.10    0.90
  -2  -5   9    0.90    1.10
   1   5  -9    3.80    1.00
   1   5  -9    3.70    0.90
   1   5  -9    1.60    1.40
  -1  -5   9    1.60    1.20
  -1  -5   9    3.10    1.40
  -1  -5   9    2.00    1.60
   0   5  -9  224.48   10.40
   0   5  -9  205.88    6.20
   0  -5   9  211.58    9.70
   0  -5   9  208.88   10.10
   0  -5   9  213.08    7.90
  -1   5  -9   53.29    3.00
  -1   5  -9   52.29    6.00
   1  -5   9   53.79    4.90
   1  -5   9   52.69    3.10
   1  -5   9   56.29    4.70
  -2   5  -9  160.78    5.80
  -2   5  -9  142.89    8.10
   2  -5   9  147.29    8.10
   2  -5   9  160.28    8.20
  -3   5  -9    8.00    2.20
  -3   5  -9    6.60    1.50
   3  -5   9    5.00    1.80
   3  -5   9    3.70    1.60
  -4   5  -9   81.69    6.20
  -4   5  -9   85.49    4.80
   4  -5   9   82.99    6.00
   4  -5   9   94.19    6.50
  -5   5  -9   17.60    3.50
   5  -5   9   14.80    2.60
   5  -5   9   21.20    4.00
   5  -5   9   16.90    3.50
   2   4  -9  564.84   14.10
   2   4  -9  567.14   14.10
   2   4  -9  554.64   18.40
  -2  -4   9  549.25   16.70
  -2  -4   9  535.65   16.60
  -2  -4   9  556.54   18.80
   1   4  -9  332.47    9.40
   1   4  -9  315.17   12.70
  -1  -4   9  320.77   11.10
  -1  -4   9  314.57   12.80
  -1  -4   9  309.77   11.60
   0   4  -9   70.69    5.50
   0   4  -9   67.19    3.60
   0  -4   9   66.39    5.00
   0  -4   9   68.49    5.50
   0  -4   9   70.79    4.30
  -1   4  -9  107.09    4.70
  -1   4  -9  109.79    6.80
   1  -4   9  106.69    6.70
   1  -4   9  106.09    6.30
   1  -4   9  107.29    4.70
  -2   4  -9  165.48    8.60
  -2   4  -9  182.28    6.60
   2  -4   9  167.98    8.50
   2  -4   9  188.38    8.60
  -3   4  -9  121.19    7.20
  -3   4  -9  129.99    5.70
   3  -4   9  121.29    7.10
   3  -4   9  120.99    6.90
  -4   4  -9  278.07   11.70
  -4   4  -9  311.57   10.00
   4  -4   9  276.87   11.40
   4  -4   9  272.87   11.20
  -5   4  -9  219.08   10.50
   5  -4   9  221.78   10.30
   5  -4   9  239.58    9.00
  -6   4  -9  107.09    6.40
   6  -4   9  118.69    6.50
   6  -4   9  115.49    7.50
   3   3  -9   57.59    5.00
   3   3  -9   56.29    6.50
   3   3  -9   60.49    4.20
  -3  -3   9   44.00    5.30
  -3  -3   9   51.59    4.30
   2   3  -9  127.19    5.90
   2   3  -9  136.59    7.10
   2   3  -9  137.29    8.10
  -2  -3   9  130.29    7.20
  -2  -3   9  128.79    6.80
   1   3  -9  156.28    7.10
   1   3  -9  156.78    8.40
   1   3  -9  149.29    6.20
  -1  -3   9  157.48    7.50
  -1  -3   9  163.38    8.70
  -1  -3   9  149.59    7.30
   0   3  -9  205.78    7.20
   0   3  -9  221.18    7.90
   0   3  -9  196.98    9.40
   0  -3   9  190.28    7.70
   0  -3   9  192.58    8.40
   0  -3   9  212.88    9.70
  -1   3  -9  342.27    9.70
  -1   3  -9  331.77    9.90
   1  -3   9  350.06   11.90
   1  -3   9  332.27   12.40
   1  -3   9  348.27    9.90
  -2   3  -9   72.49    4.10
   2  -3   9   66.99    4.80
   2  -3   9   76.49    5.40
  -3   3  -9   29.40    3.30
   3  -3   9   21.50    3.10
   3  -3   9   24.00    3.70
  -4   3  -9  257.47    9.10
   4  -3   9  265.67   10.70
  -5   3  -9   50.99    5.80
  -5   3  -9   51.49    4.70
   5  -3   9   48.90    3.90
   5  -3   9   49.80    5.60
  -6   3  -9  199.08    8.80
   6  -3   9  209.18    9.90
   6  -3   9  211.38    8.90
  -7   3  -9    2.20    1.40
   7  -3   9    6.90    2.40
   7  -3   9    2.30    1.40
   3   2  -9   49.00    4.00
   3   2  -9   54.99    6.30
   3   2  -9   42.60    5.00
  -3  -2   9   45.80    3.90
  -3  -2   9   62.19    5.40
   2   2  -9   79.49    6.00
   2   2  -9   70.39    5.10
  -2  -2   9   82.59    5.70
  -2  -2   9   75.09    4.80
   1   2  -9   27.80    3.50
   1   2  -9   23.20    3.80
  -1  -2   9   28.60    4.40
  -1  -2   9   24.30    3.30
  -1  -2   9   32.30    3.80
   0   2  -9    0.30    0.70
   0   2  -9    1.20    0.90
   0   2  -9    0.50    0.70
   0  -2   9   -0.70    0.50
   0  -2   9    0.00    0.60
   0  -2   9   -0.20    0.50
  -1   2  -9    0.60    0.60
  -1   2  -9    0.90    0.80
   1  -2   9    0.50    0.90
   1  -2   9    1.00    0.80
   1  -2   9    0.30    0.70
  -2   2  -9  123.79    4.70
  -2   2  -9  135.19    5.80
   2  -2   9  125.69    6.40
   2  -2   9  132.29    4.90
   2  -2   9  124.79    6.80
  -3   2  -9  203.28    7.60
   3  -2   9  202.78    8.90
   3  -2   9  203.58    8.50
  -4   2  -9   68.39    4.30
   4  -2   9   60.39    4.70
  -5   2  -9  340.77   12.60
  -5   2  -9  331.77   12.60
   5  -2   9  339.67   12.50
  -6   2  -9  151.98    7.40
   6  -2   9  143.19    7.90
   6  -2   9  153.68    7.40
  -7   2  -9   96.59    6.20
   7  -2   9   90.39    6.50
   7  -2   9   95.69    6.10
   3   1  -9  165.78    7.80
   3   1  -9  164.08    8.60
   3   1  -9  163.98    9.10
  -3  -1   9  156.88    6.90
  -3  -1   9  175.78    9.20
   2   1  -9   77.19    5.40
   2   1  -9   62.29    5.30
  -2  -1   9   69.89    5.40
  -2  -1   9   72.29    4.50
   1   1  -9  253.47   10.70
   1   1  -9  262.97    9.80
  -1  -1   9  245.58    8.90
  -1  -1   9  262.17   11.20
  -1  -1   9  261.07   10.20
   0   1  -9   -0.10    0.50
   0   1  -9    1.90    1.10
   0   1  -9    2.30    1.10
   0  -1   9    1.40    1.00
   0  -1   9    1.20    0.90
   0  -1   9    2.50    1.60
  -1   1  -9   18.20    2.60
  -1   1  -9   15.60    2.80
  -1   1  -9   16.70    2.30
   1  -1   9   18.70    2.80
   1  -1   9   15.80    3.00
   1  -1   9   20.90    2.70
  -2   1  -9  126.09    6.60
  -2   1  -9  109.79    5.40
  -2   1  -9  108.29    4.60
   2  -1   9  112.39    6.30
   2  -1   9  130.89    6.20
  -3   1  -9    1.20    1.00
  -3   1  -9   -0.10    0.40
  -3   1  -9    0.60    0.70
   3  -1   9    0.10    0.70
  -4   1  -9  177.38    7.30
  -4   1  -9  179.68    8.30
  -4   1  -9  165.68    4.10
   4  -1   9  182.88    8.10
  -5   1  -9   10.40    2.60
  -5   1  -9    5.70    1.70
   5  -1   9    5.90    1.90
   6  -1   9   81.59    5.30
   6  -1   9   70.09    5.20
  -7   1  -9   55.59    4.70
   7  -1   9   56.59    4.90
   7  -1   9   61.79    4.90
  -8   1  -9   47.60    5.40
   8  -1   9   50.99    5.40
   8  -1   9   47.30    5.70
   3   0  -9   98.99    6.20
   3   0  -9  105.59    7.10
   3   0  -9   98.09    6.70
  -3   0   9   93.49    6.80
  -3   0   9   97.79    5.00
   2   0  -9   10.40    2.60
   2   0  -9    9.80    2.50
  -2   0   9   16.10    2.40
  -2   0   9   13.90    3.00
   1   0  -9  123.39    6.60
   1   0  -9  108.79    6.70
  -1   0   9  118.09    6.70
  -1   0   9  135.09    5.80
  -1   0   9  127.49    7.40
   0   0  -9  217.38    8.50
   0   0  -9  222.08    9.40
   0   0   9  232.58    9.80
   0   0   9  237.78    8.10
   0   0   9  215.08    8.80
  -1   0  -9  381.36   11.20
  -1   0  -9  378.26   12.60
  -1   0  -9  395.66   12.00
   1   0   9  381.86   11.30
   1   0   9  373.06   12.80
   1   0   9  390.26   11.70
  -2   0  -9  120.69    5.20
  -2   0  -9  115.79    5.70
  -2   0  -9  130.89    6.60
   2   0   9  129.49    5.90
   2   0   9  131.49    6.70
  -3   0  -9 1377.56   30.90
  -3   0  -9 1368.86   29.70
  -3   0  -9 1384.76   27.40
   3   0   9 1384.76   30.80
  -4   0  -9   11.30    2.20
  -4   0  -9   12.40    1.50
  -4   0  -9    9.40    2.00
   4   0   9   11.30    2.30
  -5   0  -9  381.36    8.50
  -5   0  -9  382.76   12.80
   5   0   9  391.16   12.80
  -6   0  -9  130.59    3.20
  -6   0  -9  131.89    3.30
   6   0   9  139.19    7.20
   6   0   9  139.09    7.00
  -7   0  -9   62.19    4.80
   7   0   9   49.99    4.50
   7   0   9   51.59    4.50
  -8   0  -9   -0.50    0.70
   8   0   9    0.30    1.00
   8   0   9   -0.60    0.90
   3  -1  -9  196.88    9.20
   3  -1  -9  208.58   10.10
   3  -1  -9  211.28   10.20
  -3   1   9  207.58    6.90
  -3   1   9  197.68   10.30
   2  -1  -9    1.00    1.20
   2  -1  -9    0.90    1.10
  -2   1   9    0.90    1.00
  -2   1   9    1.20    0.80
   1  -1  -9   49.50    4.20
   1  -1  -9   48.90    4.40
  -1   1   9   45.00    3.10
  -1   1   9   51.59    4.50
   0  -1  -9  241.18    9.70
   0  -1  -9  252.67    9.40
   0   1   9  229.78    9.80
   0   1   9  249.97    8.00
   0   1   9  230.48    9.30
  -1  -1  -9   36.20    3.10
  -1  -1  -9   28.20    3.50
  -1  -1  -9   33.30    3.70
   1   1   9   32.70    3.10
   1   1   9   38.30    4.40
   1   1   9   39.80    2.90
  -2  -1  -9  913.31   21.80
  -2  -1  -9  930.61   20.70
  -2  -1  -9  849.91   21.70
   2   1   9  910.21   22.30
  -3  -1  -9  255.77    8.00
  -3  -1  -9  257.87    9.30
  -3  -1  -9  256.57    9.50
   3   1   9  267.77    9.60
  -4  -1  -9  437.56   10.90
  -4  -1  -9  428.36   12.90
  -4  -1  -9  426.66   13.20
   4   1   9  431.06   13.10
  -5  -1  -9   28.30    3.60
  -5  -1  -9   24.50    2.00
   5   1   9   25.50    3.50
  -6  -1  -9  577.54   12.70
  -6  -1  -9  554.34   16.30
   6   1   9  522.85   15.90
   6   1   9  558.44   16.30
  -7  -1  -9    2.80    0.80
  -7  -1  -9    2.60    0.80
  -7  -1  -9    3.00    1.40
   7   1   9    1.70    1.10
   7   1   9    1.90    1.20
  -8  -1  -9  220.88    6.70
  -8  -1  -9  230.88   10.20
  -8  -1  -9  215.78    6.60
   8   1   9  211.78    9.90
   8   1   9  222.68   10.20
   8   1   9  236.78   10.30
   3  -2  -9   14.20    3.40
   3  -2  -9   18.50    3.40
   3  -2  -9   13.40    3.10
  -3   2   9   11.00    2.90
  -3   2   9   13.90    1.70
   2  -2  -9   31.10    4.30
   2  -2  -9   36.30    4.80
  -2   2   9   35.60    5.00
  -2   2   9   36.20    2.30
   1  -2  -9    8.70    2.20
   1  -2  -9    6.20    1.90
  -1   2   9    8.50    1.50
  -1   2   9    7.60    2.20
   0  -2  -9  326.77   11.40
   0  -2  -9  340.87   11.70
   0   2   9  329.67   12.00
   0   2   9  332.07    9.20
   0   2   9  335.37   11.90
  -1  -2  -9  280.87   10.10
  -1  -2  -9  293.27   10.00
   1   2   9  279.07    8.40
   1   2   9  275.87   10.00
   1   2   9  273.77   10.40
  -2  -2  -9    5.70    1.50
  -2  -2  -9    8.80    2.00
  -2  -2  -9    6.40    1.60
   2   2   9   11.50    2.40
  -3  -2  -9  348.07   11.30
  -3  -2  -9  357.36   11.30
  -3  -2  -9  355.16   10.50
   3   2   9  352.66   11.30
  -4  -2  -9   83.29    4.90
  -4  -2  -9   80.69    4.20
  -4  -2  -9   83.79    5.00
   4   2   9   83.29    4.90
  -5  -2  -9    0.30    0.70
  -5  -2  -9    1.10    0.70
   5   2   9    0.10    0.80
  -6  -2  -9   60.19    3.40
   6   2   9   64.99    4.50
  -7  -2  -9  158.98    5.90
  -7  -2  -9  158.58    6.00
  -7  -2  -9  163.78    8.00
   7   2   9  156.78    7.90
   7   2   9  162.48    7.80
  -8  -2  -9  210.68    9.80
  -8  -2  -9  220.48    7.40
   8   2   9  224.28   10.10
   8   2   9  226.78    9.80
   8   2   9  214.58    9.90
  -9  -2  -9  175.98    9.30
  -9  -2  -9  182.18    7.00
   9   2   9  173.38    9.20
   9   2   9  176.98    9.00
   9   2   9  178.28    9.40
   3  -3  -9   44.70    5.30
   3  -3  -9   48.90    5.50
   3  -3  -9   60.29    5.60
  -3   3   9   46.50    6.10
   2  -3  -9    3.20    1.50
   2  -3  -9    4.70    1.80
  -2   3   9    8.10    0.90
  -2   3   9    6.00    2.10
   1  -3  -9   87.19    5.70
   1  -3  -9   75.29    5.50
  -1   3   9   71.79    3.00
  -1   3   9   68.99    5.50
   0  -3  -9  249.78   10.00
   0  -3  -9  258.37    9.80
   0   3   9  229.68    9.90
   0   3   9  249.48    7.10
  -1  -3  -9  328.07   11.10
  -1  -3  -9  324.87   10.90
   1   3   9  318.37    8.80
   1   3   9  322.37   11.20
  -2  -3  -9   52.29    3.90
  -2  -3  -9   51.39    3.80
  -2  -3  -9   48.30    5.90
   2   3   9   53.99    4.00
  -3  -3  -9  162.58    6.90
  -3  -3  -9  166.58    7.60
  -3  -3  -9  153.98    6.70
   3   3   9  158.88    6.90
  -4  -3  -9   53.39    3.80
  -4  -3  -9   55.89    3.70
   4   3   9   53.89    3.80
  -5  -3  -9   -0.40    0.40
  -5  -3  -9   -0.20    0.60
   5   3   9   -0.30    0.50
  -6  -3  -9  173.18    8.10
  -6  -3  -9  169.48    6.70
   6   3   9  175.48    7.50
  -7  -3  -9    1.40    1.10
  -7  -3  -9    0.20    0.50
   7   3   9    0.70    1.10
   7   3   9    0.20    0.70
   7   3   9    0.50    1.00
  -8  -3  -9   11.60    2.00
  -8  -3  -9   16.00    3.30
   8   3   9   10.60    2.50
   8   3   9   12.40    2.80
   8   3   9   15.70    2.80
  -9  -3  -9   24.80    4.00
  -9  -3  -9   28.80    3.50
   9   3   9   32.10    4.40
   9   3   9   32.40    4.70
   9   3   9   21.00    3.50
   2  -4  -9  108.69    7.30
   2  -4  -9  114.49    6.80
  -2   4   9   95.19    7.10
   1  -4  -9  244.68   10.80
   1  -4  -9  286.07   10.80
  -1   4   9  282.07   11.90
   0  -4  -9   38.90    4.40
   0  -4  -9   36.20    4.30
   0   4   9   35.50    1.90
   0   4   9   35.30    4.70
  -1  -4  -9  589.34   16.00
  -1  -4  -9  592.74   16.90
   1   4   9  586.94   13.20
  -2  -4  -9   -0.30    0.40
  -2  -4  -9    0.20    0.80
   2   4   9    0.50    0.80
  -3  -4  -9  145.09    6.20
  -3  -4  -9  135.19    6.50
   3   4   9  134.79    6.10
  -4  -4  -9   57.29    3.80
  -4  -4  -9   55.59    4.00
   4   4   9   54.59    3.70
   4   4   9   52.09    3.60
  -5  -4  -9  244.98    8.80
  -5  -4  -9  256.17    8.80
   5   4   9  237.38    8.90
   5   4   9  240.18    8.50
  -6  -4  -9   38.60    3.30
   6   4   9   41.90    3.40
  -7  -4  -9  712.43   19.90
   7   4   9  705.03   18.30
   7   4   9  688.23   19.30
  -8  -4  -9   72.99    5.70
   8   4   9   75.99    5.60
   8   4   9   87.79    5.50
   8   4   9   74.09    5.70
  -9  -4  -9   28.10    4.10
  -9  -4  -9   26.90    4.30
   9   4   9   26.80    4.00
   9   4   9   22.50    3.90
   9   4   9   18.70    3.20
   2  -5  -9   92.09    6.90
   2  -5  -9   86.39    6.00
  -2   5   9  100.49    7.50
   1  -5  -9  207.48    9.00
   1  -5  -9  203.08    9.90
  -1   5   9  180.38    9.70
   0  -5  -9   98.49    6.40
   0  -5  -9   97.19    5.60
  -1  -5  -9   25.70    3.90
  -1  -5  -9   25.60    3.10
   1   5   9   26.20    1.70
   1   5   9   23.60    1.60
  -2  -5  -9  185.88    8.50
  -2  -5  -9  188.88    7.30
   2   5   9  188.38    7.60
   2   5   9  195.28    6.20
  -3  -5  -9   26.30    3.00
  -3  -5  -9   22.30    3.40
   3   5   9   19.90    2.70
   3   5   9   23.70    2.70
  -4  -5  -9  897.11   22.30
  -4  -5  -9  918.11   20.70
   4   5   9  896.61   20.60
   4   5   9  882.91   20.60
  -5  -5  -9   20.80    2.70
  -5  -5  -9   20.70    3.10
   5   5   9   16.20    2.60
   5   5   9   20.40    2.60
  -6  -5  -9  564.34   16.10
   6   5   9  587.04   15.10
  -7  -5  -9   15.20    3.00
   7   5   9   14.40    2.90
   7   5   9   15.50    2.50
  -8  -5  -9  338.97   12.90
   8   5   9  335.37   12.60
   8   5   9  334.87   11.40
  -9  -5  -9   37.80    5.10
  -9  -5  -9   51.09    4.30
   9   5   9   39.20    5.00
   9   5   9   46.00    5.50
   9   5   9   40.70    4.60
   1  -6  -9   65.99    4.90
   1  -6  -9   52.69    6.20
   0  -6  -9   65.09    5.50
   0  -6  -9   64.39    4.50
  -1  -6  -9   40.20    3.30
  -1  -6  -9   35.50    4.40
   1   6   9   34.10    1.40
   1   6   9   34.20    1.40
  -2  -6  -9  140.79    6.00
  -2  -6  -9  139.19    7.50
   2   6   9  132.39    4.70
  -3  -6  -9   44.90    3.10
  -3  -6  -9   45.20    4.10
   3   6   9   46.70    3.40
   3   6   9   40.90    2.80
  -4  -6  -9   35.30    4.10
  -4  -6  -9   27.60    2.50
   4   6   9   29.70    2.60
   4   6   9   29.40    2.60
  -5  -6  -9  688.93   16.50
  -5  -6  -9  685.83   19.00
   5   6   9  697.73   17.50
   5   6   9  682.83   16.30
  -6  -6  -9    2.60    1.40
  -6  -6  -9    4.50    1.70
   6   6   9    3.40    1.20
  -7  -6  -9  146.59    7.80
   7   6   9  145.59    6.20
   7   6   9  133.99    7.10
  -8  -6  -9    3.90    1.90
   8   6   9    3.00    1.60
   1  -7  -9  198.38    8.70
   1  -7  -9  209.28   10.80
   0  -7  -9    8.60    2.10
   0  -7  -9   10.90    3.00
  -1  -7  -9   16.70    3.30
  -1  -7  -9   14.10    2.30
  -2  -7  -9  386.26   10.80
  -2  -7  -9  376.06   13.90
   2   7   9  359.16    8.80
  -3  -7  -9  207.68    7.00
  -3  -7  -9  215.18    9.80
  -3  -7  -9  203.28    9.30
   3   7   9  196.78    6.70
  -4  -7  -9  347.47   12.60
  -4  -7  -9  316.67    9.00
  -4  -7  -9  312.97   11.70
   4   7   9  313.37    9.30
   4   7   9  313.07    9.70
  -5  -7  -9  150.08    7.90
  -5  -7  -9  150.38    7.70
   5   7   9  144.19    5.60
   5   7   9  142.59    6.40
  -6  -7  -9   78.29    5.60
  -6  -7  -9   65.29    5.20
   6   7   9   76.59    3.90
  -7  -7  -9   30.40    4.20
   7   7   9   37.00    4.40
   7   7   9   34.00    2.70
  -8  -7  -9  126.39    7.70
   8   7   9  129.89    5.90
   8   7   9  142.29    7.70
   0  -8  -9    0.20    1.10
   0  -8  -9    1.70    1.10
  -1  -8  -9   18.80    2.50
  -1  -8  -9   32.30    4.80
  -2  -8  -9   20.10    3.90
  -2  -8  -9   20.10    2.40
   2   8   9   17.70    1.20
  -3  -8  -9  283.07   11.60
  -3  -8  -9  307.57    8.30
  -3  -8  -9  288.47   12.20
   3   8   9  284.77    8.40
  -4  -8  -9    0.30    1.00
  -4  -8  -9    0.30    0.50
  -4  -8  -9    0.70    1.00
   4   8   9    0.90    0.80
  -5  -8  -9  290.07   11.40
  -5  -8  -9  284.37   11.90
   5   8   9  286.47    9.80
  -6  -8  -9    0.40    0.90
  -6  -8  -9    0.50    1.00
   6   8   9    0.00    0.40
   6   8   9   -0.30    0.60
  -7  -8  -9    0.30    1.10
   7   8   9   -0.30    0.70
   7   8   9    0.60    0.60
  -8  -8  -9   18.10    3.50
  -2  -9  -9  196.88   10.50
  -2  -9  -9  201.88    6.30
  -3  -9  -9   25.10    3.90
  -3  -9  -9   31.60    1.80
  -3  -9  -9   30.30    4.80
   3   9   9   33.10    2.40
  -4  -9  -9   29.00    4.30
  -4  -9  -9   31.80    4.60
   4   9   9   36.80    3.00
  -5  -9  -9   56.29    4.90
  -5  -9  -9   58.79    6.70
   5   9   9   50.19    3.90
  -6  -9  -9  100.69    6.60
  -6  -9  -9  116.99    7.70
   6   9   9   97.59    5.80
  -7  -9  -9   89.89    6.40
   7   9   9   88.39    3.00
   7   9   9   92.39    6.00
  -4 -10  -9    9.70    2.80
  -4 -10  -9    7.80    2.40
   4  10   9   13.60    2.30
   0   5 -10  151.98    5.40
   0   5 -10  159.18    9.20
   0  -5  10  156.68    9.10
   0  -5  10  153.78    8.50
   0  -5  10  159.18    6.90
  -1   5 -10  125.69    4.90
  -1   5 -10  113.09    7.60
   1  -5  10  111.49    4.90
   1  -5  10  115.79    7.30
   1  -5  10  126.39    7.90
  -2   5 -10   -0.10    0.80
  -2   5 -10   -0.40    0.50
   2  -5  10   -0.20    0.80
   2  -5  10   -0.10    0.80
  -3   5 -10  142.29    6.10
  -3   5 -10  141.39    8.60
   3  -5  10  141.69    8.30
   3  -5  10  135.49    8.00
   1   4 -10  107.09    7.60
   1   4 -10  118.09    5.30
  -1  -4  10  124.69    6.80
  -1  -4  10  111.79    6.90
  -1  -4  10  136.19    8.60
   0   4 -10  267.97   11.90
   0   4 -10  248.58    8.20
   0  -4  10  249.88    9.20
   0  -4  10  254.97   10.80
   0  -4  10  236.08   11.30
  -1   4 -10  165.78    9.10
  -1   4 -10  172.18    6.50
   1  -4  10  164.78    8.40
   1  -4  10  166.28    6.40
   1  -4  10  160.08    8.90
  -2   4 -10  270.27   11.70
  -2   4 -10  254.47    8.50
   2  -4  10  267.87   11.00
   2  -4  10  247.88   11.10
  -3   4 -10   70.99    4.40
  -3   4 -10   78.39    6.10
   3  -4  10   72.49    5.70
   3  -4  10   67.79    5.40
  -4   4 -10   98.09    7.00
  -4   4 -10  104.89    5.60
   4  -4  10  113.89    7.10
   4  -4  10  100.99    6.90
  -5   4 -10   92.49    6.90
   5  -4  10   91.69    6.70
   5  -4  10   83.69    6.30
   1   3 -10   82.09    5.30
   1   3 -10   76.09    4.60
   1   3 -10   82.09    6.50
  -1  -3  10   84.49    5.60
  -1  -3  10   74.69    6.30
  -1  -3  10   87.39    5.70
   0   3 -10    3.90    1.40
   0   3 -10    5.00    1.90
   0   3 -10    1.50    0.90
   0  -3  10    1.90    1.60
   0  -3  10    4.00    1.70
   0  -3  10    2.80    1.30
  -1   3 -10  195.38    9.60
  -1   3 -10  197.98    7.10
  -1   3 -10  187.28    7.20
   1  -3  10  180.58    8.40
   1  -3  10  178.88    7.00
   1  -3  10  174.58    9.10
  -2   3 -10  107.99    7.00
  -2   3 -10  113.59    5.50
   2  -3  10  120.89    6.80
   2  -3  10  115.59    7.10
  -3   3 -10   97.69    6.60
  -3   3 -10   97.99    5.20
   3  -3  10   88.69    5.90
   3  -3  10   95.29    6.40
  -4   3 -10  190.88    9.60
  -4   3 -10  197.88    8.10
   4  -3  10  199.88    9.30
   4  -3  10  201.98    9.60
  -5   3 -10  170.28    9.20
   5  -3  10  180.08    9.20
  -6   3 -10   56.99    4.70
   6  -3  10   56.49    6.20
   2   2 -10   38.10    4.60
   2   2 -10   39.40    5.40
  -2  -2  10   44.20    3.90
  -2  -2  10   34.10    4.60
   1   2 -10   94.29    5.40
   1   2 -10   83.89    6.30
   1   2 -10   77.69    5.30
  -1  -2  10   87.59    6.80
  -1  -2  10   88.49    5.80
  -1  -2  10   77.89    5.20
   0   2 -10  111.19    5.70
   0   2 -10  103.89    5.50
   0   2 -10  103.69    6.90
   0  -2  10  106.89    5.90
   0  -2  10   98.99    6.90
   0  -2  10  102.59    5.90
  -1   2 -10    2.30    1.30
  -1   2 -10    2.80    1.10
  -1   2 -10    1.30    0.90
   1  -2  10    3.30    1.60
   1  -2  10    1.80    1.00
   1  -2  10    2.30    1.10
  -2   2 -10   16.30    2.10
  -2   2 -10   13.50    2.70
  -2   2 -10   15.10    2.50
   2  -2  10   15.80    2.80
   2  -2  10   13.40    2.70
  -3   2 -10    0.30    0.80
  -3   2 -10    0.00    0.80
   3  -2  10    0.90    1.10
   3  -2  10   -0.20    0.60
  -4   2 -10   58.09    4.30
   4  -2  10   60.29    5.00
  -5   2 -10   -0.40    0.70
  -5   2 -10    0.20    0.60
   5  -2  10    0.70    1.00
  -6   2 -10   97.29    6.10
  -6   2 -10  108.59    7.20
   6  -2  10  108.19    7.10
  -7   2 -10  138.39    7.70
   7  -2  10  140.59    8.40
   7  -2  10  133.99    7.50
   2   1 -10   85.79    6.00
   2   1 -10   75.49    6.20
  -2  -1  10   85.19    5.20
  -2  -1  10   78.29    6.00
   1   1 -10  132.99    8.00
   1   1 -10  149.49    7.50
  -1  -1  10  156.98    8.90
  -1  -1  10  153.08    7.00
  -1  -1  10  145.09    7.70
   0   1 -10  149.49    6.90
   0   1 -10  124.19    6.40
   0   1 -10  126.99    7.60
   0  -1  10  143.69    8.20
   0  -1  10  129.09    6.80
   0  -1  10  142.99    6.70
  -1   1 -10   67.39    4.20
  -1   1 -10   66.29    4.50
  -1   1 -10   70.79    5.40
   1  -1  10   74.39    5.60
   1  -1  10   71.39    4.70
   1  -1  10   62.69    4.30
  -2   1 -10  336.47   11.00
  -2   1 -10  339.47    9.80
  -2   1 -10  339.37   12.50
   2  -1  10  366.86   11.80
   2  -1  10  324.77   12.40
  -3   1 -10   69.49    5.20
  -3   1 -10   65.79    3.30
  -3   1 -10   74.29    4.70
   3  -1  10   70.79    5.20
   3  -1  10   70.49    4.80
  -4   1 -10   25.20    1.50
  -4   1 -10   22.40    3.70
   4  -1  10   28.10    4.10
  -5   1 -10  375.06   13.50
   5  -1  10  370.26   13.30
  -6   1 -10  107.79    6.40
  -6   1 -10  123.89    7.50
   6  -1  10  120.79    7.30
  -7   1 -10   95.69    6.30
   7  -1  10   93.29    6.60
   7  -1  10   93.29    6.20
   2   0 -10  243.08   11.50
   2   0 -10  269.07   11.40
  -2   0  10  258.87   11.60
  -2   0  10  303.17    9.70
   1   0 -10  192.18    8.90
   1   0 -10  178.98    9.30
  -1   0  10  201.58    9.40
  -1   0  10  211.38    7.90
   0   0 -10   76.49    5.10
   0   0 -10   82.59    5.90
   0   0  10   80.89    6.00
   0   0  10   83.59    5.40
   0   0  10   72.99    4.50
  -1   0 -10   43.40    4.50
  -1   0 -10   32.30    3.10
  -1   0 -10   33.50    4.20
   1   0  10   31.80    4.30
   1   0  10   35.00    3.30
   1   0  10   33.40    3.80
  -2   0 -10  266.27    8.80
  -2   0 -10  265.97   10.60
  -2   0 -10  278.97    9.90
   2   0  10  273.57    9.70
   2   0  10  273.07   10.80
  -3   0 -10  160.88    7.90
  -3   0 -10  159.58    7.30
  -3   0 -10  161.18    5.90
   3   0  10  153.18    7.70
  -4   0 -10  523.55   16.20
  -4   0 -10  541.05   12.30
   4   0  10  527.05   16.10
  -5   0 -10    0.30    0.80
  -5   0 -10    1.40    1.10
  -5   0 -10    1.40    0.50
   5   0  10    3.30    1.50
  -6   0 -10  437.96   14.20
  -6   0 -10  436.06   15.00
   6   0  10  458.25   15.00
  -7   0 -10   14.00    3.10
   7   0  10    7.30    2.20
   7   0  10   11.90    2.90
  -8   0 -10  231.18   10.60
   8   0  10  245.88   11.20
   8   0  10  257.27   11.20
   2  -1 -10   88.79    6.40
   2  -1 -10   89.89    6.60
  -2   1  10   77.39    4.20
  -2   1  10   88.39    6.60
   1  -1 -10    1.50    1.20
   1  -1 -10    0.00    0.90
  -1   1  10    0.50    0.70
  -1   1  10    0.20    0.90
   0  -1 -10  291.77   10.80
   0  -1 -10  275.17   11.30
   0   1  10  297.27    9.40
   0   1  10  287.67   11.90
   0   1  10  279.27   10.90
  -1  -1 -10   18.60    3.20
  -1  -1 -10   18.00    2.90
   1   1  10   14.80    3.00
   1   1  10   15.30    2.80
   1   1  10   18.00    2.60
  -2  -1 -10   29.50    2.80
  -2  -1 -10   27.20    3.80
   2   1  10   27.00    3.80
   2   1  10   21.80    2.80
  -3  -1 -10  486.35   12.80
  -3  -1 -10  460.15   14.50
   3   1  10  467.65   14.60
  -4  -1 -10   55.59    3.30
  -4  -1 -10   56.19    4.50
   4   1  10   62.49    4.70
  -5  -1 -10  509.75   15.50
  -5  -1 -10  536.95   16.20
  -5  -1 -10  534.35   12.60
   5   1  10  530.05   15.90
  -6  -1 -10   46.90    2.60
  -6  -1 -10   49.10    5.40
  -6  -1 -10   49.70    4.30
   6   1  10   46.70    4.20
  -7  -1 -10  170.28    5.20
  -7  -1 -10  167.68    5.20
  -7  -1 -10  181.08    8.80
   7   1  10  179.78    8.80
  -8  -1 -10    2.30    0.70
  -8  -1 -10    2.10    0.70
  -8  -1 -10    1.60    1.30
   8   1  10    2.50    1.70
   8   1  10    1.00    1.10
   2  -2 -10    0.10    1.00
   2  -2 -10    1.60    1.40
  -2   2  10    3.30    1.00
  -2   2  10    4.60    2.10
   1  -2 -10   32.10    4.50
   1  -2 -10   22.30    3.70
  -1   2  10   22.40    3.70
  -1   2  10   27.50    2.30
   0  -2 -10   14.50    3.00
   0  -2 -10   14.20    2.90
   0   2  10   20.30    2.50
   0   2  10   13.20    2.60
  -1  -2 -10  135.89    6.80
  -1  -2 -10  123.09    6.90
   1   2  10  135.79    5.70
   1   2  10  132.89    7.30
   1   2  10  129.89    6.90
  -2  -2 -10   60.19    4.20
  -2  -2 -10   65.29    4.70
   2   2  10   68.09    4.10
   2   2  10   62.19    4.70
  -3  -2 -10   87.59    4.80
  -3  -2 -10   96.89    5.70
   3   2  10   94.19    5.70
  -4  -2 -10   56.59    3.60
  -4  -2 -10   48.00    4.00
   4   2  10   50.09    4.00
  -5  -2 -10   13.10    2.00
  -5  -2 -10   16.00    2.90
  -5  -2 -10   13.60    2.60
   5   2  10   11.30    2.30
  -6  -2 -10   36.90    4.40
  -6  -2 -10   28.90    2.40
  -6  -2 -10   35.70    4.40
   6   2  10   30.10    3.80
  -7  -2 -10    5.20    1.30
  -7  -2 -10    1.10    1.10
   7   2  10    2.20    1.20
  -8  -2 -10   26.90    2.30
  -8  -2 -10   26.90    2.30
  -8  -2 -10   31.00    4.50
   8   2  10   31.20    4.50
   8   2  10   26.50    4.10
   8   2  10   26.20    4.10
   2  -3 -10  151.08    8.50
   2  -3 -10  136.59    8.30
  -2   3  10  128.69    3.60
  -2   3  10  137.09    8.70
   1  -3 -10    4.80    1.90
   1  -3 -10    5.40    2.00
  -1   3  10    3.00    0.80
  -1   3  10    1.20    1.30
   0  -3 -10  120.79    6.90
   0  -3 -10  121.89    7.00
   0   3  10  112.89    7.00
   0   3  10  120.59    4.70
  -1  -3 -10  286.37   10.70
  -1  -3 -10  278.77   10.70
   1   3  10  291.77    8.60
   1   3  10  264.17   10.80
  -2  -3 -10    3.20    1.30
  -2  -3 -10    4.50    1.60
  -2  -3 -10    1.90    1.30
   2   3  10    4.20    1.30
   2   3  10    2.50    1.30
  -3  -3 -10  347.47   11.10
  -3  -3 -10  312.07   11.00
   3   3  10  330.37   11.30
  -4  -3 -10   66.49    4.90
  -4  -3 -10   64.49    4.20
  -4  -3 -10   60.59    4.40
   4   3  10   67.69    4.60
  -5  -3 -10   10.80    2.30
  -5  -3 -10   12.00    2.40
  -5  -3 -10   12.60    2.20
   5   3  10    9.60    2.00
  -6  -3 -10   38.10    4.20
  -6  -3 -10   35.60    3.00
  -6  -3 -10   44.40    5.10
   6   3  10   40.80    3.60
  -7  -3 -10  134.99    7.50
  -7  -3 -10  124.09    5.70
   7   3  10  125.79    6.80
   7   3  10  119.99    7.10
  -8  -3 -10   83.99    4.60
  -8  -3 -10   84.59    6.20
  -8  -3 -10   78.79    4.50
   8   3  10   90.29    6.40
   8   3  10   94.79    6.10
   1  -4 -10   18.20    3.70
   1  -4 -10   15.50    2.90
  -1   4  10   11.90    3.10
   0  -4 -10  224.88    9.60
   0  -4 -10  224.88   10.10
   0   4  10  206.08   10.10
   0   4  10  221.38    6.00
  -1  -4 -10  230.48    9.30
  -1  -4 -10  206.38    9.40
   1   4  10  227.98    6.90
  -2  -4 -10  344.57   12.40
  -2  -4 -10  350.06   11.50
  -2  -4 -10  317.87   11.60
   2   4  10  328.47   11.50
  -3  -4 -10    4.00    1.60
  -3  -4 -10    4.80    1.70
  -3  -4 -10    3.90    1.40
   3   4  10    3.00    1.30
  -4  -4 -10  232.18    9.70
  -4  -4 -10  227.78    8.80
  -4  -4 -10  235.68    9.00
   4   4  10  230.48    8.80
  -5  -4 -10    1.00    0.80
  -5  -4 -10    2.80    1.30
  -5  -4 -10    1.70    1.20
   5   4  10    2.20    1.10
  -6  -4 -10  199.88    9.20
  -6  -4 -10  195.68    7.90
  -6  -4 -10  195.98    8.30
   6   4  10  198.28    8.60
   6   4  10  196.58    8.20
  -7  -4 -10   16.60    2.70
  -7  -4 -10    7.50    2.30
   7   4  10   10.50    2.30
   7   4  10    7.80    2.20
  -8  -4 -10  353.36   11.60
  -8  -4 -10  383.76   14.10
   8   4  10  330.87   12.20
   8   4  10  374.26   13.70
   1  -5 -10   70.19    5.40
   1  -5 -10   57.79    6.50
  -1   5  10   66.39    6.10
   0  -5 -10   58.09    5.30
   0  -5 -10   61.39    4.80
  -1  -5 -10  336.97   12.80
  -1  -5 -10  330.47   11.50
   1   5  10  345.77    8.30
   1   5  10  344.67    8.40
  -2  -5 -10   90.39    5.30
  -2  -5 -10   90.59    6.10
  -2  -5 -10   86.59    5.80
   2   5  10   93.29    4.20
  -3  -5 -10   25.00    3.60
  -3  -5 -10   23.00    3.00
  -3  -5 -10   20.00    3.20
   3   5  10   28.50    3.00
   3   5  10   20.60    3.00
  -4  -5 -10   27.70    3.30
  -4  -5 -10   35.30    4.10
  -4  -5 -10   33.70    4.40
   4   5  10   32.10    3.60
   4   5  10   32.20    2.90
  -5  -5 -10  160.18    7.60
  -5  -5 -10  165.28    7.00
  -5  -5 -10  158.48    8.00
   5   5  10  164.08    6.90
   5   5  10  172.58    7.60
  -6  -5 -10   65.99    4.70
  -6  -5 -10   65.89    5.20
   6   5  10   65.49    4.70
   6   5  10   69.49    4.50
  -7  -5 -10  725.03   19.20
  -7  -5 -10  724.33   20.80
   7   5  10  699.33   18.40
   7   5  10  711.93   19.90
  -8  -5 -10  138.49    8.10
  -8  -5 -10  142.19    7.20
   8   5  10  136.89    6.90
   8   5  10  120.49    7.40
   0  -6 -10   26.90    3.80
   0  -6 -10   20.00    3.80
  -1  -6 -10  307.17   10.80
  -1  -6 -10  318.67   12.80
  -2  -6 -10    7.60    2.20
  -2  -6 -10    7.80    1.80
  -2  -6 -10    9.30    2.50
   2   6  10    7.80    1.30
  -3  -6 -10   26.40    3.10
  -3  -6 -10   26.30    3.70
  -3  -6 -10   26.50    3.90
   3   6  10   28.50    2.40
   3   6  10   32.60    3.80
  -4  -6 -10   18.80    3.10
  -4  -6 -10   18.70    3.20
  -4  -6 -10   19.40    2.60
   4   6  10   23.90    3.20
   4   6  10   22.40    2.90
  -5  -6 -10  138.99    6.20
  -5  -6 -10  145.99    7.60
  -5  -6 -10  134.79    7.50
   5   6  10  144.89    6.30
   5   6  10  150.28    6.80
  -6  -6 -10  129.69    7.40
  -6  -6 -10  136.79    7.20
   6   6  10  130.49    6.70
   6   6  10  123.69    5.80
  -7  -6 -10    7.20    2.10
  -7  -6 -10    6.20    2.00
   7   6  10    6.50    2.10
   7   6  10    8.60    1.90
  -8  -6 -10  310.87   11.80
  -8  -6 -10  307.67   12.80
   8   6  10  297.57   10.50
   8   6  10  303.67   12.10
  -1  -7 -10   20.50    4.00
  -1  -7 -10   21.30    3.00
  -2  -7 -10  137.89    8.20
  -2  -7 -10  143.79    6.40
   2   7  10  139.79    4.30
   2   7  10  134.69    4.20
  -3  -7 -10    5.00    1.80
  -3  -7 -10    9.90    1.80
  -3  -7 -10    9.70    2.60
   3   7  10   10.00    1.70
  -4  -7 -10   18.50    3.20
  -4  -7 -10   11.20    2.70
  -4  -7 -10   19.70    2.50
   4   7  10   20.60    2.80
   4   7  10   21.00    2.70
  -5  -7 -10  448.26   15.30
  -5  -7 -10  468.45   15.60
  -5  -7 -10  457.25   12.30
   5   7  10  442.06   12.30
   5   7  10  454.75   13.30
  -6  -7 -10    5.30    2.00
  -6  -7 -10    3.20    1.70
   6   7  10    5.20    1.40
   6   7  10    4.70    1.60
  -7  -7 -10  117.09    7.40
  -7  -7 -10  119.39    7.20
   7   7  10  125.89    6.90
   7   7  10  118.59    5.50
  -2  -8 -10   50.59    6.20
  -2  -8 -10   44.40    3.30
  -3  -8 -10    0.30    0.60
  -3  -8 -10    0.10    1.10
  -3  -8 -10    2.40    1.40
   3   8  10    1.40    0.80
  -4  -8 -10  144.69    8.50
  -4  -8 -10  146.69    8.20
  -4  -8 -10  149.59    5.60
   4   8  10  154.18    6.30
  -5  -8 -10    0.00    0.90
  -5  -8 -10    0.00    0.90
   5   8  10    1.00    1.00
  -6  -8 -10  319.07   13.00
  -6  -8 -10  327.67   12.80
   6   8  10  325.37   11.30
   6   8  10  321.07    9.30
  -7  -8 -10   48.30    5.60
  -4  -9 -10    1.70    1.50
  -4  -9 -10    0.80    1.50
   4   9  10    0.10    0.70
  -5  -9 -10  200.28    9.90
  -1   3 -11   25.20    3.20
  -1   3 -11   22.80    4.00
   1  -3  11   29.20    4.30
   1  -3  11   25.00    3.10
   1  -3  11   30.40    4.90
  -2   3 -11  127.39    6.20
  -2   3 -11  125.69    8.00
   2  -3  11  113.09    7.60
   2  -3  11  110.79    7.00
  -3   3 -11   75.59    5.80
   3  -3  11   88.09    6.50
   3  -3  11   80.09    5.90
  -4   3 -11   88.19    6.70
   4  -3  11   78.29    6.20
   4  -3  11   77.99    6.00
   0   2 -11    5.20    1.70
   0   2 -11    1.70    1.50
   0  -2  11    7.00    1.90
   0  -2  11    7.70    2.60
   0  -2  11    4.20    1.70
  -1   2 -11  144.39    8.50
  -1   2 -11  130.59    6.20
   1  -2  11  146.19    7.50
   1  -2  11  141.49    6.60
   1  -2  11  142.79    8.50
  -2   2 -11   43.40    3.00
  -2   2 -11   47.60    5.70
   2  -2  11   41.30    5.10
   2  -2  11   41.00    4.60
  -3   2 -11   53.79    6.30
   3  -2  11   63.79    5.00
   3  -2  11   64.09    5.40
  -4   2 -11    6.20    2.30
  -4   2 -11    5.60    1.70
   4  -2  11    4.70    1.80
   4  -2  11    5.60    2.00
  -5   2 -11   11.50    2.50
  -5   2 -11   15.60    3.40
   5  -2  11    9.00    2.60
   0   1 -11  326.07   11.60
   0   1 -11  327.47   13.50
   0   1 -11  327.07   11.70
   0  -1  11  342.57   11.80
   0  -1  11  341.97   12.30
   0  -1  11  317.87   13.60
  -1   1 -11   23.10    3.10
  -1   1 -11   16.50    3.20
   1  -1  11   16.30    2.80
   1  -1  11   21.60    3.90
   1  -1  11   23.10    3.40
  -2   1 -11  130.49    5.70
  -2   1 -11  125.69    7.60
   2  -1  11  115.99    6.60
   2  -1  11  127.19    7.70
  -3   1 -11   47.80    5.70
  -3   1 -11   53.89    3.10
   3  -1  11   62.59    5.20
   3  -1  11   50.89    4.40
  -4   1 -11  117.19    6.50
  -4   1 -11  127.39    7.70
  -4   1 -11  119.39    3.90
   4  -1  11  127.59    7.50
  -5   1 -11  194.18    9.70
  -5   1 -11  177.28    8.40
   5  -1  11  193.68    9.50
  -6   1 -11  171.48    9.40
  -6   1 -11  182.88    8.80
   6  -1  11  192.98    9.70
   0   0 -11  189.28    9.80
   0   0 -11  190.38    8.80
   0   0 -11  194.38    8.80
   0   0  11  204.18   10.50
   0   0  11  206.88    9.40
   0   0  11  196.38    8.20
  -1   0 -11  236.68    9.20
  -1   0 -11  223.68   10.50
  -1   0 -11  246.28    9.90
   1   0  11  242.18   11.20
   1   0  11  246.98    9.30
   1   0  11  236.58    9.60
  -2   0 -11  228.38   10.30
  -2   0 -11  224.88    8.30
  -2   0 -11  194.18    8.70
   2   0  11  228.78    9.10
   2   0  11  227.78   10.30
  -3   0 -11   71.99    5.60
  -3   0 -11   79.39    4.20
  -3   0 -11   78.29    5.20
   3   0  11   79.39    5.20
   3   0  11   80.19    5.80
  -4   0 -11   30.70    2.30
  -4   0 -11   24.90    3.40
  -4   0 -11   19.60    3.20
   4   0  11   36.10    4.70
  -5   0 -11  325.37    7.60
  -5   0 -11  308.27   12.40
  -5   0 -11  305.87   11.60
   5   0  11  320.47   12.40
  -6   0 -11   20.60    3.60
  -6   0 -11   17.80    3.50
   6   0  11   10.00    2.50
  -7   0 -11  336.47   13.00
   7   0  11  341.27   13.40
   0  -1 -11   31.10    4.50
   0  -1 -11   31.90    4.30
   0  -1 -11   28.30    3.90
   0   1  11   32.50    5.00
   0   1  11   27.80    4.10
   0   1  11   35.40    3.80
  -1  -1 -11    3.40    1.50
  -1  -1 -11    3.80    1.50
  -1  -1 -11    1.50    1.20
   1   1  11    4.80    1.70
   1   1  11    3.80    1.40
   1   1  11    5.30    1.90
  -2  -1 -11    1.40    1.20
  -2  -1 -11    0.60    0.90
  -2  -1 -11   -0.10    0.70
   2   1  11   -0.10    0.80
   2   1  11    2.10    1.00
  -3  -1 -11  198.88    7.60
  -3  -1 -11  195.68    8.80
  -3  -1 -11  185.78    8.90
   3   1  11  205.08    9.40
   3   1  11  191.08    8.20
  -4  -1 -11  150.48    6.00
  -4  -1 -11  150.88    7.90
  -4  -1 -11  130.69    7.20
   4   1  11  153.68    7.90
  -5  -1 -11    0.40    0.60
  -5  -1 -11    2.10    1.40
  -5  -1 -11    1.70    1.40
   5   1  11    0.90    1.10
  -6  -1 -11  316.97    8.20
  -6  -1 -11  329.57   12.70
  -6  -1 -11  316.57   12.20
   6   1  11  314.67   12.30
  -7  -1 -11   56.99    2.40
  -7  -1 -11   59.99    2.50
  -7  -1 -11   63.59    5.30
   7   1  11   59.49    5.10
   0  -2 -11  260.97   11.30
   0  -2 -11  259.47   10.90
   0   2  11  254.97    8.50
   0   2  11  240.18   10.90
  -1  -2 -11    6.70    2.10
  -1  -2 -11    9.60    2.40
  -1  -2 -11   13.40    2.70
   1   2  11   11.30    2.10
   1   2  11   10.30    2.90
  -2  -2 -11   22.50    3.60
  -2  -2 -11   20.00    3.40
  -2  -2 -11   16.00    2.70
   2   2  11   25.90    4.00
   2   2  11   20.00    2.90
  -3  -2 -11   35.50    4.00
  -3  -2 -11   27.70    4.00
  -3  -2 -11   29.50    3.90
   3   2  11   33.30    4.30
  -4  -2 -11   32.80    4.20
  -4  -2 -11   26.90    3.20
  -4  -2 -11   31.80    4.10
   4   2  11   36.60    4.60
  -5  -2 -11  121.59    5.50
  -5  -2 -11  127.99    7.10
  -5  -2 -11  128.09    7.10
   5   2  11  123.49    6.90
  -6  -2 -11   13.30    2.00
  -6  -2 -11   11.10    2.60
  -6  -2 -11   14.20    3.10
   6   2  11    9.50    2.30
  -7  -2 -11   35.60    2.70
  -7  -2 -11   45.70    5.40
   7   2  11   41.80    5.10
   0  -3 -11   45.00    5.10
   0  -3 -11   56.59    5.10
   0   3  11   55.89    6.30
   0   3  11   54.49    3.20
  -1  -3 -11   85.69    5.80
  -1  -3 -11   79.69    5.90
  -1  -3 -11   66.59    5.30
   1   3  11   79.39    4.20
   1   3  11   86.09    6.10
  -2  -3 -11  136.59    7.10
  -2  -3 -11  139.09    7.70
  -2  -3 -11  137.19    7.40
   2   3  11  141.49    6.10
   2   3  11  128.09    7.30
  -3  -3 -11   86.69    5.30
  -3  -3 -11   79.79    5.40
  -3  -3 -11   78.99    5.70
   3   3  11   84.49    5.70
  -4  -3 -11  668.83   19.30
  -4  -3 -11  681.83   17.70
  -4  -3 -11  654.93   18.70
   4   3  11  686.83   18.90
  -5  -3 -11   16.90    2.90
  -5  -3 -11   21.10    3.70
  -5  -3 -11   17.50    2.70
   5   3  11   20.80    3.20
  -6  -3 -11  165.48    8.20
  -6  -3 -11  158.88    6.80
  -6  -3 -11  155.68    8.40
   6   3  11  192.98    8.60
  -7  -3 -11   62.29    4.00
  -7  -3 -11   55.29    6.00
   7   3  11   51.99    5.80
   7   3  11   56.19    4.70
   0  -4 -11    7.50    2.40
   0  -4 -11    4.30    1.80
   0   4  11    9.40    1.30
  -1  -4 -11  130.29    7.30
  -1  -4 -11  134.99    7.70
   1   4  11  134.89    5.20
  -2  -4 -11    1.40    1.30
  -2  -4 -11    1.40    1.20
  -2  -4 -11    2.30    1.60
   2   4  11    0.40    0.70
   2   4  11    0.50    0.90
  -3  -4 -11  644.24   18.20
  -3  -4 -11  654.83   19.30
  -3  -4 -11  652.53   18.20
   3   4  11  650.93   18.30
  -4  -4 -11   73.49    5.10
  -4  -4 -11   92.09    6.20
  -4  -4 -11   89.59    5.50
   4   4  11   91.79    5.60
  -5  -4 -11  379.16   12.50
  -5  -4 -11  321.77   12.60
  -5  -4 -11  359.16   11.80
   5   4  11  370.86   12.20
  -6  -4 -11   -0.40    0.90
  -6  -4 -11    1.90    1.20
  -6  -4 -11    4.10    1.50
   6   4  11    2.60    1.30
   6   4  11    2.20    1.30
  -7  -4 -11  311.47   10.50
  -7  -4 -11  285.27   12.10
   7   4  11  287.67   11.80
   7   4  11  304.57   11.30
  -1  -5 -11  285.07   12.10
  -1  -5 -11  312.27   11.60
   1   5  11  282.37    7.60
   1   5  11  286.77    7.50
  -2  -5 -11  243.58   10.80
  -2  -5 -11  208.58    9.80
  -2  -5 -11  210.38    9.00
   2   5  11  209.18    7.10
   2   5  11  201.28    6.80
  -3  -5 -11   24.50    4.00
  -3  -5 -11   19.90    3.40
  -3  -5 -11   22.90    3.20
   3   5  11   24.40    3.60
   3   5  11   31.50    3.30
  -4  -5 -11  282.97   10.80
  -4  -5 -11  262.77    9.90
  -4  -5 -11  251.97   10.90
   4   5  11  257.47    9.80
   4   5  11  253.57    9.20
  -5  -5 -11   18.90    3.40
  -5  -5 -11   24.70    3.40
  -5  -5 -11   27.60    3.70
   5   5  11   36.30    4.20
  -6  -5 -11    3.60    1.70
  -6  -5 -11    2.10    1.20
  -6  -5 -11    0.90    1.10
   6   5  11    3.40    1.40
   6   5  11    3.30    1.40
  -7  -5 -11   29.50    4.30
  -7  -5 -11   41.30    4.60
   7   5  11   36.60    4.80
   7   5  11   34.50    4.20
  -2  -6 -11  283.57   10.50
  -2  -6 -11  295.57   12.30
  -2  -6 -11  298.77   12.60
   2   6  11  291.87    8.10
   2   6  11  287.67    7.90
  -3  -6 -11   73.09    4.80
  -3  -6 -11   77.29    6.10
  -3  -6 -11   78.99    5.90
   3   6  11   70.29    3.90
  -4  -6 -11  174.98    8.70
  -4  -6 -11  163.68    7.30
  -4  -6 -11  156.68    8.60
   4   6  11  173.38    7.10
   4   6  11  167.68    7.50
  -5  -6 -11   46.40    5.20
  -5  -6 -11   45.50    3.70
  -5  -6 -11   43.90    5.20
   5   6  11   48.20    3.80
  -6  -6 -11   16.10    3.10
  -6  -6 -11   22.10    3.70
   6   6  11   16.20    3.00
   6   6  11   20.80    3.10
  -7  -6 -11  112.99    7.40
  -7  -6 -11  116.49    6.90
   7   6  11  112.69    6.00
   7   6  11  106.69    6.60
  -3  -7 -11    0.70    1.30
  -3  -7 -11    0.50    0.80
  -3  -7 -11    0.50    0.90
   3   7  11    0.80    0.70
  -4  -7 -11   14.80    3.30
  -4  -7 -11   10.80    2.60
  -4  -7 -11   12.10    2.20
   4   7  11   14.40    2.30
  -5  -7 -11   32.70    3.00
  -5  -7 -11   28.80    4.30
  -5  -7 -11   27.70    4.20
   5   7  11   30.20    3.60
  -6  -7 -11   78.19    6.00
  -6  -7 -11   75.19    6.00
   6   7  11   71.79    4.50
   6   7  11   68.79    4.90
  -3   1 -12  394.06   10.70
  -3   1 -12  370.96   14.90
  -3   1 -12  385.76   13.30
   3  -1  12  421.46   14.30
   3  -1  12  405.36   15.30
  -2   0 -12  224.78    8.80
  -2   0 -12  225.18   10.90
  -2   0 -12  229.88   10.00
   2   0  12  232.38    9.60
   2   0  12  219.98   10.90
  -3   0 -12   94.49    6.10
  -3   0 -12   93.29    4.90
  -3   0 -12   88.49    6.60
   3   0  12   80.19    6.30
   3   0  12   95.99    6.10
  -4   0 -12  123.69    5.00
  -4   0 -12  116.19    6.90
  -4   0 -12  122.79    7.80
   4   0  12  125.99    7.20
   4   0  12  125.99    7.70
  -5   0 -12  129.59    8.10
  -5   0 -12  142.69    4.40
  -5   0 -12  138.19    7.70
   5   0  12  142.59    8.30
  -2  -1 -12   50.19    4.20
  -2  -1 -12   45.40    5.50
  -2  -1 -12   52.09    5.50
   2   1  12   43.10    3.90
   2   1  12   41.20    5.30
  -3  -1 -12    8.10    1.90
  -3  -1 -12    6.40    2.20
  -3  -1 -12    4.30    1.90
   3   1  12    5.60    1.90
   3   1  12    5.60    2.00
  -4  -1 -12    5.50    1.50
  -4  -1 -12    8.30    2.50
  -4  -1 -12    6.40    2.20
   4   1  12    5.60    2.20
  -5  -1 -12    8.00    2.20
  -5  -1 -12    4.30    1.90
  -5  -1 -12    5.70    1.30
   5   1  12    8.70    2.50
  -2  -2 -12   31.90    4.20
  -2  -2 -12   33.40    4.60
  -2  -2 -12   32.90    4.60
   2   2  12   29.90    4.40
   2   2  12   29.20    3.70
  -3  -2 -12  190.28    9.20
  -3  -2 -12  182.18    9.10
  -3  -2 -12  172.88    7.80
   3   2  12  179.68    8.00
   3   2  12  172.28    9.00
  -4  -2 -12   10.90    2.60
  -4  -2 -12    7.10    2.20
  -4  -2 -12    8.70    2.00
   4   2  12    8.70    2.50
  -5  -2 -12    5.20    2.00
  -5  -2 -12    6.10    2.10
  -5  -2 -12    3.40    1.30
   5   2  12    7.20    2.30
  -6  -2 -12  189.28    6.90
  -6  -2 -12  185.08    9.40
  -6  -2 -12  181.08    9.30
   6   2  12  189.58    9.30
  -2  -3 -12    2.30    1.60
  -2  -3 -12    1.30    1.30
  -2  -3 -12    2.70    1.60
   2   3  12    2.00    1.10
   2   3  12    3.10    1.70
  -3  -3 -12   94.39    6.40
  -3  -3 -12  107.39    6.90
  -3  -3 -12  100.59    6.10
   3   3  12  106.49    6.80
   3   3  12  115.29    6.00
  -4  -3 -12   37.20    4.20
  -4  -3 -12   37.90    4.90
  -4  -3 -12   40.30    5.00
   4   3  12   35.30    4.50
  -5  -3 -12  252.07    9.30
  -5  -3 -12  258.97   11.20
  -5  -3 -12  245.78   10.60
   5   3  12  239.78   10.40
  -6  -3 -12    0.20    0.90
  -6  -3 -12    1.20    0.90
  -6  -3 -12    0.10    1.20
   6   3  12    0.00    0.90
  -3  -4 -12    9.50    2.60
  -3  -4 -12    9.50    2.40
  -3  -4 -12   10.20    2.40
   3   4  12   10.00    2.70
   3   4  12   10.20    2.10
  -4  -4 -12  366.06   12.60
  -4  -4 -12  347.67   12.80
  -4  -4 -12  358.86   13.80
   4   4  12  363.76   13.10
  -5  -4 -12   22.10    3.40
  -5  -4 -12   39.10    4.40
  -5  -4 -12   31.60    4.60
   5   4  12   29.10    4.10
   5   4  12   25.90    3.70
  -6  -4 -12  419.86   15.30
  -4  -5 -12  124.79    7.80
  -4  -5 -12  125.99    7.00
  -4  -5 -12  127.39    7.30
   4   5  12  114.69    6.80
  -5  -5 -12   97.79    6.90
  -5  -5 -12   97.99    6.00
  -5  -5 -12   82.79    5.80
   5   5  12   92.79    5.90
   5   5  12   92.59    5.70
   0   0   0    0.00    0.00

_computing_structure_solution     'SHELXT 2018/2 (Sheldrick, 2018)'
;
_shelx_hkl_checksum              93987
_olex2_submission_special_instructions 'No special instructions were received'
